10
Lattice="16.290000149 0.0 0.0 0.0 16.290000149 0.0 0.0 0.0 29.1751946751" Properties=species:S:1:pos:R:3:initial_magmoms:R:1 pbc="T T T"
Si       1.35052246      -1.35814618       1.30722377       0.00000000
Si       1.37067319       1.25481871      -1.43095577       0.00000000
Si      -1.31167081      -1.42987105      -1.32149044       0.00000000
Si      -1.19565343       1.40369302       1.47533124       0.00000000
Si      -2.56985178       2.64328058       0.03524364       0.00000000
Si       2.72026712       2.59519250      -0.11427924       0.00000000
Si      -2.63809059      -0.07113843      -2.68928192       0.00000000
Si      -2.55863286      -0.02625948       2.77546544       0.00000000
Si       2.73971739      -0.00904095       2.60149376       0.00000000
Si       0.00596214      -2.66727575       2.70098117       0.00000000
