10
Lattice="16.290000149 0.0 0.0 0.0 16.290000149 0.0 0.0 0.0 29.1751946751" Properties=species:S:1:pos:R:3:initial_magmoms:R:1 pbc="T T T"
Si       2.06886260      -0.72481704       0.84459271       0.00000000
Si       0.75393379       0.58606045      -2.15365452       0.00000000
Si      -1.28469620      -1.98697277      -0.11655490       0.00000000
Si      -0.60185035       1.51940089       1.75602579       0.00000000
H        0.67963510       1.55887156       2.57616969       0.00000000
H        0.14213025       1.89270254      -2.59224522       0.00000000
Si      -0.08145000       3.51593589       0.05779606       0.00000000
Si       1.28607922      -2.22171167       2.55411324       0.00000000
Si       3.11780829      -1.39755169      -1.22602921       0.00000000
Si      -1.96265669       0.13435503       3.09172455       0.00000000
