10
Lattice="16.290000149 0.0 0.0 0.0 16.290000149 0.0 0.0 0.0 29.1751946751" Properties=species:S:1:pos:R:3:initial_magmoms:R:1 pbc="T T T"
Si       1.35615880       1.34008057      -1.31426958       0.00000000
Si       1.43407387      -1.31911534       1.28152043       0.00000000
Si      -1.33595920       1.44116002       1.28878505       0.00000000
Si      -1.30393306      -1.29523420      -1.47563758       0.00000000
Si      -0.05031981       2.70405857      -2.56781683       0.00000000
Si       0.05238864      -2.63533106       2.64411872       0.00000000
Si      -2.67151115      -2.64466523      -0.12577426       0.00000000
Si      -2.69959511       0.08053776       2.61917393       0.00000000
Si       2.78042610      -2.59915097      -0.17793951       0.00000000
Si       2.76894165       0.08615781       2.61882382       0.00000000
