10
Lattice="16.290000149 0.0 0.0 0.0 16.290000149 0.0 0.0 0.0 29.1751946751" Properties=species:S:1:pos:R:3:initial_magmoms:R:1 pbc="T T T"
Si      -0.92838177       0.81565823       1.99622517       0.00000000
Si      -1.87504255      -0.92465136      -1.08969352       0.00000000
Si       1.35391241       1.38916397      -1.34229236       0.00000000
Si       1.84236807      -1.17445851       0.93077624       0.00000000
H        2.63916084       1.42402457      -0.52789597       0.00000000
H       -2.95153463       0.15890406      -1.06845398       0.00000000
Si       0.52697173      -2.60216299       2.27741570       0.00000000
Si       1.94492991      -0.12851507      -3.10429906       0.00000000
Si       0.40455238       2.79433938       2.47892877       0.00000000
Si      -0.64369154      -1.01075997       3.56459611       0.00000000
