10
Lattice="16.290000149 0.0 0.0 0.0 16.290000149 0.0 0.0 0.0 29.1751946751" Properties=species:S:1:pos:R:3:initial_magmoms:R:1 pbc="T T T"
Si      -1.33907059       1.35808102       1.34203416       0.00000000
Si       1.40151016      -1.42364827       1.22179880       0.00000000
Si       1.39163842       1.23321817      -1.42468311       0.00000000
Si      -1.50231268      -1.28443393      -1.28755969       0.00000000
H        0.50844348       2.08134074      -2.31764829       0.00000000
Si       2.70972749       0.02269197       2.59213727       0.00000000
Si      -2.55295253       2.77237884      -0.10891100       0.00000000
Si      -2.66002670      -0.04531878       2.68352857       0.00000000
Si       2.41937453      -0.25905987      -2.89219540       0.00000000
Si       0.07506432      -2.80577334       2.59671194       0.00000000
