10
Lattice="16.290000149 0.0 0.0 0.0 16.290000149 0.0 0.0 0.0 29.1751946751" Properties=species:S:1:pos:R:3:initial_magmoms:R:1 pbc="T T T"
Si      -1.43407387       1.31911534      -1.28152043       0.00000000
Si      -1.38168523      -1.31621572       1.36259829       0.00000000
Si       1.33486777       1.40527315       1.33730340       0.00000000
Si       1.34635222      -1.28003563      -1.45945994       0.00000000
Si      -0.07791507       2.65919591      -2.59579001       0.00000000
Si       2.68594409      -2.61579935      -0.03778188       0.00000000
Si      -0.02590110      -2.68578119       2.70031014       0.00000000
Si      -2.75388969      -2.64411137      -0.00049598       0.00000000
Si       2.69809643       0.06737544       2.70115622       0.00000000
Si      -2.74989864       0.06170652       2.68735636       0.00000000
