10
Lattice="16.290000149 0.0 0.0 0.0 16.290000149 0.0 0.0 0.0 29.1751946751" Properties=species:S:1:pos:R:3:initial_magmoms:R:1 pbc="T T T"
Si      -1.48734217       1.79409917      -0.11745933       0.00000000
Si       1.11319345      -1.11055447      -1.75658012       0.00000000
Si      -1.64160847      -1.54373815       0.73218069       0.00000000
Si       1.87108571       0.82893295       1.25190760       0.00000000
H       -0.74701054       0.54270135       2.49701739       0.00000000
H       -1.39496158       0.96998806       2.45903128       0.00000000
Si       2.44933184      -2.51856434      -0.37259641       0.00000000
H        1.37829691       3.19819944      -0.96672008       0.00000000
H        0.80586631       3.32407227       1.36166469       0.00000000
Si       2.56513745       2.68737761      -0.16869098       0.00000000
