10
Lattice="16.290000149 0.0 0.0 0.0 16.290000149 0.0 0.0 0.0 29.1751946751" Properties=species:S:1:pos:R:3:initial_magmoms:R:1 pbc="T T T"
Si       1.37495746       1.34048782      -1.34395534       0.00000000
Si       1.36231642      -1.39284388       1.30523986       0.00000000
Si      -1.35392707      -1.35420400      -1.36020593       0.00000000
Si      -1.35156502       1.36956547       1.35159924       0.00000000
Si       0.00592956       2.68902290      -2.68449719       0.00000000
Si       2.78177817      -0.08281836       2.62019506       0.00000000
Si      -2.74082511       0.00985545       2.66430795       0.00000000
Si       0.01239669      -2.75017557       2.65768518       0.00000000
Si       0.01428633      -2.73212624      -2.68496399       0.00000000
Si       0.02723688       2.73481410       2.68729801       0.00000000
