10
Lattice="16.290000149 0.0 0.0 0.0 16.290000149 0.0 0.0 0.0 29.1751946751" Properties=species:S:1:pos:R:3:initial_magmoms:R:1 pbc="T T T"
Si      -1.34210216      -1.34468450       1.37117580       0.00000000
Si       1.35270532      -1.36185416      -1.36213149       0.00000000
Si      -1.40282639       1.33514107      -1.33981247       0.00000000
Si       1.34602642       1.34392138       1.38873927       0.00000000
Si       2.65460213       2.68976210      -0.03705250       0.00000000
Si      -2.71793790       0.05471106       2.68050019       0.00000000
Si      -0.05466924       2.69007161      -2.71472269       0.00000000
Si      -2.71555176      -2.70890685       0.01167008       0.00000000
Si       2.71722089      -0.01388922      -2.71314723       0.00000000
Si      -0.06908589       2.70204476       2.73529120       0.00000000
