10
Lattice="16.290000149 0.0 0.0 0.0 16.290000149 0.0 0.0 0.0 29.1751946751" Properties=species:S:1:pos:R:3:initial_magmoms:R:1 pbc="T T T"
Si       1.53666829      -1.27125532      -1.19939225       0.00000000
Si       1.39523851       1.32133078       1.36553332       0.00000000
Si      -1.21712365      -1.43392726       1.44172726       0.00000000
Si      -1.47284407       1.20806641      -1.45307057       0.00000000
H        0.35862435      -1.81011224      -2.25357956       0.00000000
Si      -2.67180437       2.68193675      -0.02456551       0.00000000
Si       2.85641227       2.49878828      -0.04901433       0.00000000
Si      -2.64859112      -0.06195087       2.72578301       0.00000000
Si      -0.14307507       2.54262467      -2.84796580       0.00000000
Si       0.06511113       2.76240936       2.67878177       0.00000000
