10
Lattice="16.290000149 0.0 0.0 0.0 16.290000149 0.0 0.0 0.0 29.1751946751" Properties=species:S:1:pos:R:3:initial_magmoms:R:1 pbc="T T T"
Si      -1.32967126       1.31430979       1.41941115       0.00000000
Si      -1.42586371      -1.35984034      -1.27934366       0.00000000
Si       1.32823774      -1.39561318       1.36952448       0.00000000
Si       1.33481890       1.36483909      -1.40837125       0.00000000
Si       0.01951542      -2.55269189      -2.63743468       0.00000000
Si       2.63262692       2.64846732       0.09772231       0.00000000
Si      -2.60832876       2.68773274       0.03237863       0.00000000
Si      -2.74151091      -0.07587882       2.67612682       0.00000000
Si       2.66538611      -0.07100811       2.77386373       0.00000000
Si       2.70969491      -2.75250504       0.04588966       0.00000000
