10
Lattice="16.290000149 0.0 0.0 0.0 16.290000149 0.0 0.0 0.0 29.1751946751" Properties=species:S:1:pos:R:3:initial_magmoms:R:1 pbc="T T T"
H       -0.91440658      -0.07081263       1.21240439       0.00000000
Si      -0.88591537       1.42459309      -1.59048574       0.00000000
Si       0.34386561      -2.12019239      -0.93162232       0.00000000
Si       1.88835311       1.33972219       0.38709648       0.00000000
H        0.98857495       0.34850826       2.45754335       0.00000000
H       -2.17520372      -1.83207116       0.78895561       0.00000000
Si       0.27697887       2.87028337       1.46681209       0.00000000
Si      -0.32394294       0.38959164      -3.60007315       0.00000000
Si      -1.71634700      -2.81988048      -1.83240645       0.00000000
Si       1.56498031      -3.44461827       0.58452503       0.00000000
