10
Lattice="16.290000149 0.0 0.0 0.0 16.290000149 0.0 0.0 0.0 29.1751946751" Properties=species:S:1:pos:R:3:initial_magmoms:R:1 pbc="T T T"
Si       1.71926291      -1.62997741      -0.10330936       0.00000000
Si      -2.05796459      -1.00870939      -0.72564544       0.00000000
Si       1.39533625       1.73899010      -0.91227916       0.00000000
Si      -1.00452286       1.24036948       1.84501014       0.00000000
H        0.80282008      -1.46826658      -2.64616098       0.00000000
H       -0.60224131       0.56399239      -3.10024371       0.00000000
Si      -2.35983784       2.64968255       0.53320586       0.00000000
Si       2.15824583      -1.87699898       2.18047119       0.00000000
Si      -3.46883173       0.94320730      -0.71458804       0.00000000
Si       3.59018571      -0.73402741      -1.37899475       0.00000000
