10
Lattice="16.290000149 0.0 0.0 0.0 16.290000149 0.0 0.0 0.0 29.1751946751" Properties=species:S:1:pos:R:3:initial_magmoms:R:1 pbc="T T T"
Si       1.41183965       1.39018861      -1.25671568       0.00000000
Si       1.36538057      -1.34794864       1.37205106       0.00000000
Si      -1.28152763       1.34596126       1.45528789       0.00000000
Si      -1.39056165      -1.28702404      -1.43436052       0.00000000
Si      -2.69376167      -2.64072305      -0.00064185       0.00000000
Si      -2.59841629       2.78138069       0.18033188       0.00000000
Si       0.13318215       2.76361156      -2.64374819       0.00000000
Si       2.74151091       0.07587882      -2.67612682       0.00000000
Si       2.71697817      -2.71728605       0.01368317       0.00000000
Si       2.71272648       2.71734796       0.16872015       0.00000000
