10
Lattice="16.290000149 0.0 0.0 0.0 16.290000149 0.0 0.0 0.0 29.1751946751" Properties=species:S:1:pos:R:3:initial_magmoms:R:1 pbc="T T T"
Si      -1.54079748      -1.21248100       1.24125866       0.00000000
Si       1.24884875      -1.42462567      -1.36790818       0.00000000
Si       1.32709614       1.36374994       1.38789319       0.00000000
Si      -1.43142642       1.33076269      -1.31720169       0.00000000
H       -0.84731589      -2.34514100       2.16059822       0.00000000
Si       2.58677904      -0.04593780      -2.72420463       0.00000000
Si       2.58831030      -2.74478358       0.03270539       0.00000000
Si      -0.11232737       2.60586245       2.74856592       0.00000000
Si      -0.07271009       2.67022424      -2.69925984       0.00000000
Si      -2.81255780       2.65680128       0.06897016       0.00000000
