10
Lattice="16.290000149 0.0 0.0 0.0 16.290000149 0.0 0.0 0.0 29.1751946751" Properties=species:S:1:pos:R:3:initial_magmoms:R:1 pbc="T T T"
Si      -0.51997680      -0.90600094      -2.09542083       0.00000000
Si       2.05796459       1.00870939       0.72564544       0.00000000
Si      -1.41086714       1.95191669       0.01105740       0.00000000
Si      -0.67824556      -1.76138885       1.51127508       0.00000000
H        1.45572328       1.57270177      -2.37459827       0.00000000
Si      -1.94118158      -0.33386355       2.83820116       0.00000000
H        2.86078467      -0.45955719      -1.92051554       0.00000000
Si       0.26031420       1.20646999      -3.26563789       0.00000000
Si       1.05344173       2.24907887       2.57065558       0.00000000
Si      -3.08203545       1.16638030       1.45487943       0.00000000
