10
Lattice="16.290000149 0.0 0.0 0.0 16.290000149 0.0 0.0 0.0 29.1751946751" Properties=species:S:1:pos:R:3:initial_magmoms:R:1 pbc="T T T"
Si      -0.53514279      -0.25576929       1.38593845       0.00000000
H       -0.67166929      -0.92502766      -1.61651001       0.00000000
H       -1.58783518       0.84359395      -1.17225932       0.00000000
H        1.26079714       1.76125853       0.42344878       0.00000000
Si       0.45885672      -0.98780932      -2.62136207       0.00000000
Si       2.17520372       1.83207116      -0.78895561       0.00000000
Si       2.51906933      -0.28812123      -1.72057793       0.00000000
Si       1.15302250      -1.18519525       2.69867633       0.00000000
Si      -2.33336333      -1.85158658       1.26582417       0.00000000
Si      -1.38308617       1.62026857       2.50043088       0.00000000
