10
Lattice="16.290000149 0.0 0.0 0.0 16.290000149 0.0 0.0 0.0 29.1751946751" Properties=species:S:1:pos:R:3:initial_magmoms:R:1 pbc="T T T"
Si      -1.32162400      -1.32595714       1.36490868       0.00000000
Si       1.26293602      -1.42752529      -1.32692607       0.00000000
Si      -1.14085387       1.50024385      -1.38332172       0.00000000
Si       1.50618970       1.38469888       1.16763768       0.00000000
Si       1.94118158       0.33386355      -2.83820116       0.00000000
H       -2.31889781       0.96138694      -2.43750903       0.00000000
Si       0.53031444       2.28578024      -2.82714376       0.00000000
Si       0.10604790       2.73347831       2.53743349       0.00000000
Si       0.12819595      -2.71078634       2.59079784       0.00000000
Si      -2.57950523       0.07441272       2.73013565       0.00000000
