10
Lattice="16.290000149 0.0 0.0 0.0 16.290000149 0.0 0.0 0.0 29.1751946751" Properties=species:S:1:pos:R:3:initial_magmoms:R:1 pbc="T T T"
Si       1.33103474       1.36102951       1.37754766       0.00000000
Si      -1.29596725      -1.31393512       1.46845757       0.00000000
Si      -1.38833155       1.35935164      -1.35582965       0.00000000
Si       1.40014180      -1.34877943      -1.36979581       0.00000000
Si      -0.10604790      -2.73347831      -2.53743349       0.00000000
Si       0.07284220       2.53680914      -2.77037729       0.00000000
Si      -2.68555313      -2.65906559       0.19270216       0.00000000
Si       2.67718007       2.68959305      -0.00358563       0.00000000
Si       2.70053993       0.01244556       2.74072946       0.00000000
Si       2.75876040      -2.68835501       0.01052058       0.00000000
