10
Lattice="16.290000149 0.0 0.0 0.0 16.290000149 0.0 0.0 0.0 29.1751946751" Properties=species:S:1:pos:R:3:initial_magmoms:R:1 pbc="T T T"
Si       1.91871767      -1.05785306       0.78072821       0.00000000
Si      -1.24988284      -1.32039085      -1.47363908       0.00000000
Si       1.16051590       1.44003113      -1.50360201       0.00000000
Si      -0.97147045       0.40499710       2.15417967       0.00000000
H       -1.87949135       1.98129896       0.68071564       0.00000000
Si       0.05447376       2.55387618       2.54512728       0.00000000
Si      -2.57621465      -2.63497757      -0.10748142       0.00000000
Si       2.67959099       0.12167816      -2.70042684       0.00000000
Si       3.67020219      -0.73060976      -0.70609806       0.00000000
Si       2.60781725       2.76214383      -0.29315236       0.00000000
