10
Lattice="16.290000149 0.0 0.0 0.0 16.290000149 0.0 0.0 0.0 29.1751946751" Properties=species:S:1:pos:R:3:initial_magmoms:R:1 pbc="T T T"
Si      -0.72135379       1.32545215      -1.79672519       0.00000000
Si      -0.63863317       1.07571016       2.03356942       0.00000000
Si       1.97912099      -0.97156656      -0.92135265       0.00000000
Si      -1.52932150      -1.83509784      -0.09330227       0.00000000
H        2.43247169       1.45652149       0.94717270       0.00000000
H        1.18930033      -0.81769936       2.77838296       0.00000000
Si      -2.50054760       2.30089736      -0.55663354       0.00000000
Si       0.80153317      -2.02080026      -2.68318430       0.00000000
Si      -0.62907094      -0.38421594      -3.61784084       0.00000000
Si       2.53905716      -2.69120576       0.57734793       0.00000000
