10
Lattice="16.290000149 0.0 0.0 0.0 16.290000149 0.0 0.0 0.0 29.1751946751" Properties=species:S:1:pos:R:3:initial_magmoms:R:1 pbc="T T T"
Si       1.35861859      -1.33957558       1.38031639       0.00000000
Si      -1.50618970      -1.38469888      -1.16763768       0.00000000
Si      -1.40014180       1.34877943       1.36979581       0.00000000
Si       1.48843360       1.19824354      -1.43518326       0.00000000
Si      -2.64704357       0.11554497      -2.55095940       0.00000000
Si      -0.24325369      -2.81222418      -2.49456375       0.00000000
Si       2.66087378       2.66712914       0.01447090       0.00000000
Si       0.13311862       2.60755661      -2.74698754       0.00000000
Si      -0.01655390      -2.70001865       2.74121668       0.00000000
Si       2.67864617       0.00195480       2.77406795       0.00000000
