10
Lattice="16.290000149 0.0 0.0 0.0 16.290000149 0.0 0.0 0.0 29.1751946751" Properties=species:S:1:pos:R:3:initial_magmoms:R:1 pbc="T T T"
Si       2.23247936      -0.50383341       0.32909620       0.00000000
Si      -1.06305283       0.67704987       2.06347399       0.00000000
Si      -0.05067819       2.07024725      -1.28694701       0.00000000
Si      -0.64146763      -1.77982913      -1.58336699       0.00000000
Si      -2.35623449       1.97856387      -0.93083459       0.00000000
H       -0.64464418      -2.91690372       1.53627823       0.00000000
Si       2.79445179      -1.53883486      -1.68049121       0.00000000
Si      -3.13732371       1.40127722       1.21491346       0.00000000
Si       3.47965806       1.28092344      -0.51266652       0.00000000
Si       1.18095985      -3.23424921      -1.74893622       0.00000000
