10
Lattice="16.290000149 0.0 0.0 0.0 16.290000149 0.0 0.0 0.0 29.1751946751" Properties=species:S:1:pos:R:3:initial_magmoms:R:1 pbc="T T T"
Si      -1.30466611      -1.31508031      -1.44525162       0.00000000
Si      -1.36202320       1.39127516       1.33024300       0.00000000
Si       1.26467416      -1.38789661       1.43641153       0.00000000
Si       1.36653553       1.36007981      -1.37593136       0.00000000
Si      -2.65781126      -2.66785079      -0.10727719       0.00000000
Si       2.66219327       0.03423669       2.69036140       0.00000000
Si       2.69024465      -2.67184184       0.02269830       0.00000000
Si       0.01083285       2.78807751       2.61628558       0.00000000
Si      -2.69501762       2.73704094      -0.06211399       0.00000000
Si      -2.67999824       0.03253113      -2.78065863       0.00000000
