10
Lattice="16.290000149 0.0 0.0 0.0 16.290000149 0.0 0.0 0.0 29.1751946751" Properties=species:S:1:pos:R:3:initial_magmoms:R:1 pbc="T T T"
Si       1.83251099       1.02283282      -0.94050908       0.00000000
Si       1.40647861      -1.36397800       1.25354725       0.00000000
Si      -1.32020677       1.48943045       1.20722871       0.00000000
Si      -1.30469869      -1.18412011      -1.55224143       0.00000000
Si       0.99794170       2.26702882      -2.65398869       0.00000000
Si      -2.66996360       0.09397701       2.51722704       0.00000000
Si      -2.62565480      -2.58751991      -0.21074702       0.00000000
Si       0.05031981      -2.70405857       2.56781683       0.00000000
Si       2.74409940      -2.51950916      -0.30213832       0.00000000
Si       2.82883998       0.09692550       2.47676105       0.00000000
