10
Lattice="16.290000149 0.0 0.0 0.0 16.290000149 0.0 0.0 0.0 29.1751946751" Properties=species:S:1:pos:R:3:initial_magmoms:R:1 pbc="T T T"
Si       1.41946174       1.31002552       1.31495520       0.00000000
Si       1.37650501      -1.34452774      -1.32680033       0.00000000
Si      -1.34991973      -1.35733168       1.35244532       0.00000000
Si      -1.36231642       1.39284388      -1.30523986       0.00000000
Si       0.06064767       2.68053581       2.57937896       0.00000000
Si       0.00775404      -2.70884783      -2.65249200       0.00000000
Si      -2.71624349       0.03863988      -2.66544579       0.00000000
Si       0.01264104       2.73333170      -2.64919520       0.00000000
Si       2.73175157       0.04430880      -2.65164592       0.00000000
Si       2.73338057      -2.67224420       0.05820451       0.00000000
