10
Lattice="16.290000149 0.0 0.0 0.0 16.290000149 0.0 0.0 0.0 29.1751946751" Properties=species:S:1:pos:R:3:initial_magmoms:R:1 pbc="T T T"
Si       0.15508080      -0.79571764      -1.27591879       0.00000000
H       -1.40506138       2.03225897      -0.45408273       0.00000000
Si       0.91644283      -0.16171083       2.54285162       0.00000000
H       -1.30442176      -2.67214646       0.42496589       0.00000000
Si      -2.05382693      -0.70591087      -2.07671953       0.00000000
Si       1.01037097      -2.87432166      -0.48346215       0.00000000
Si      -0.80282008       1.46826658       2.64616098       0.00000000
Si       2.78736564       0.73423918       1.26716623       0.00000000
Si       0.86625334      -2.45588042       1.87573162       0.00000000
Si       1.23162175       0.37084185      -2.98258015       0.00000000
