10
Lattice="16.290000149 0.0 0.0 0.0 16.290000149 0.0 0.0 0.0 29.1751946751" Properties=species:S:1:pos:R:3:initial_magmoms:R:1 pbc="T T T"
Si      -1.48504528       1.07408116       1.42973042       0.00000000
Si      -1.42382746      -1.43712010      -1.16514057       0.00000000
Si       1.56084265      -1.08173746       1.36388200       0.00000000
Si       1.31427721       1.48787974      -1.26944190       0.00000000
H       -2.51621858      -0.03443706       1.64358459       0.00000000
Si       1.99112672       0.73234954       2.84942456       0.00000000
Si      -0.31829357       0.91522108       3.44754523       0.00000000
Si       0.01559605      -2.67923261      -2.52581330       0.00000000
Si      -2.71331129      -0.02363679      -2.52517145       0.00000000
Si       2.81799084       0.15425001      -2.51956981       0.00000000
