10
Lattice="16.290000149 0.0 0.0 0.0 16.290000149 0.0 0.0 0.0 29.1751946751" Properties=species:S:1:pos:R:3:initial_magmoms:R:1 pbc="T T T"
Si      -1.36757809      -1.34943103       1.34986332       0.00000000
Si       1.30393306       1.29523420       1.47563758       0.00000000
Si      -1.37204155       1.41177286      -1.30292627       0.00000000
Si       1.36304947      -1.34868169      -1.38974289       0.00000000
Si       2.66009186       2.63531477       0.16136800       0.00000000
Si       2.71270856      -2.71044425      -0.01430752       0.00000000
Si      -0.01588275      -2.66799251       2.75666203       0.00000000
Si      -2.71021619      -2.71933859      -0.01353146       0.00000000
Si      -2.72951984       0.02435355       2.70003298       0.00000000
Si      -2.78425425       0.11608254      -2.64735250       0.00000000
