10
Lattice="16.290000149 0.0 0.0 0.0 16.290000149 0.0 0.0 0.0 29.1751946751" Properties=species:S:1:pos:R:3:initial_magmoms:R:1 pbc="T T T"
Si       1.32633181       1.31458672      -1.36615767       0.00000000
Si      -1.50710194       1.26210034       1.22337426       0.00000000
Si       1.01395477      -0.81010171       1.96524111       0.00000000
Si      -1.44189307      -1.36826227      -1.29502854       0.00000000
Si      -0.81780688      -2.10194759       2.60079355       0.00000000
Si      -2.46773954      -0.44518941       2.50463211       0.00000000
Si       2.57621465       2.63497757       0.10748142       0.00000000
Si      -0.10621080       2.68018395      -2.65622642       0.00000000
Si       2.68778486      -0.05553261      -2.71110497       0.00000000
Si      -0.10265958      -2.69899238      -2.70188560       0.00000000
