10
Lattice="16.290000149 0.0 0.0 0.0 16.290000149 0.0 0.0 0.0 29.1751946751" Properties=species:S:1:pos:R:3:initial_magmoms:R:1 pbc="T T T"
Si       1.43891956      -1.34687350       1.29006876       0.00000000
Si      -1.25628481      -1.36821340      -1.45552129       0.00000000
Si       1.38054493       1.32467023      -1.38999380       0.00000000
Si      -1.42557049       1.28394523       1.41371323       0.00000000
Si       0.09110997      -2.75704995       2.59732171       0.00000000
Si      -2.69024465       2.67184184      -0.02269830       0.00000000
Si      -0.02805138       2.70607853       2.66766310       0.00000000
Si      -2.59351463      -2.81364141      -0.19707844       0.00000000
Si      -2.72090243      -0.30493251       2.69348315       0.00000000
Si       2.75164492       2.69717442      -0.06141378       0.00000000
