10
Lattice="16.290000149 0.0 0.0 0.0 16.290000149 0.0 0.0 0.0 29.1751946751" Properties=species:S:1:pos:R:3:initial_magmoms:R:1 pbc="T T T"
Si      -0.98223814       1.86168638      -0.89401549       0.00000000
Si      -1.77345974      -1.47642787       0.33671092       0.00000000
Si       0.37507725       0.64472563       2.22618405       0.00000000
Si       1.77919382      -0.97544521      -1.24009165       0.00000000
H       -0.37605465      -1.22855923      -2.58538905       0.00000000
Si       1.86191444      -1.22518720       2.59020296       0.00000000
Si       2.50054760      -2.30089736       0.55663354       0.00000000
Si      -2.46870065       0.84942577      -2.36456200       0.00000000
Si      -1.08670591      -3.52636964      -0.42840856       0.00000000
Si      -3.59109795      -0.58816675      -0.81174144       0.00000000
