10
Lattice="16.290000149 0.0 0.0 0.0 16.290000149 0.0 0.0 0.0 29.1751946751" Properties=species:S:1:pos:R:3:initial_magmoms:R:1 pbc="T T T"
Si       1.46117375       1.17745750      -1.41454764       0.00000000
Si      -1.39523851      -1.32133078      -1.36553332       0.00000000
Si      -1.33012738       1.44107857       1.31324845       0.00000000
Si       1.38833155      -1.35935164       1.35582965       0.00000000
Si       0.14142978      -2.59258610      -2.56492557       0.00000000
Si       0.05721048       2.34616727      -2.87275305       0.00000000
H       -0.83974951       3.09342216      -1.89523815       0.00000000
Si      -2.67217904       0.02324583       2.67225528       0.00000000
Si       2.68028169       2.67027311      -0.01916810       0.00000000
Si      -2.61236216      -2.75525805       0.07619394       0.00000000
