10
Lattice="16.290000149 0.0 0.0 0.0 16.290000149 0.0 0.0 0.0 29.1751946751" Properties=species:S:1:pos:R:3:initial_magmoms:R:1 pbc="T T T"
Si       1.29780802       1.28362823       1.50609357       0.00000000
Si      -1.33481890      -1.36483909       1.40837125       0.00000000
Si       1.48195018      -1.29964651      -1.33817865       0.00000000
Si      -1.35720136       1.38596527      -1.39892141       0.00000000
Si      -0.00351864      -2.55099545      -2.71507279       0.00000000
Si      -2.60783354       2.72950584       0.08733945       0.00000000
Si       2.69583212      -2.71394432       0.11276650       0.00000000
Si       2.36757233       2.37793505      -1.87561492       0.00000000
Si       2.28600830       3.07113972       0.35377841       0.00000000
Si       3.09860238       0.18776408      -2.27604446       0.00000000
