10
Lattice="16.290000149 0.0 0.0 0.0 16.290000149 0.0 0.0 0.0 29.1751946751" Properties=species:S:1:pos:R:3:initial_magmoms:R:1 pbc="T T T"
Si      -1.43251003       1.32180319       1.28443795       0.00000000
Si      -1.37640727      -1.34170957      -1.33193516       0.00000000
Si       1.34991973       1.35733168      -1.35244532       0.00000000
Si       1.35640315      -1.33463971       1.37639816       0.00000000
Si      -0.00508248       2.71085150       2.46442869       0.00000000
Si      -0.00009774      -2.70581789      -2.64867005       0.00000000
Si      -2.72714150       0.03391578      -2.67428587       0.00000000
Si       2.72642474       0.01280394      -2.67924565       0.00000000
Si       0.00457749      -2.66152538       2.74582345       0.00000000
Si      -0.01239669       2.75017557      -2.65768518       0.00000000
