10
Lattice="16.290000149 0.0 0.0 0.0 16.290000149 0.0 0.0 0.0 29.1751946751" Properties=species:S:1:pos:R:3:initial_magmoms:R:1 pbc="T T T"
Si      -1.31540122       1.32318133       1.40043852       0.00000000
Si       0.98820028       1.78751149      -1.15231516       0.00000000
Si       1.38251602      -1.32402199       1.36614308       0.00000000
Si      -1.29780802      -1.28362823      -1.50609357       0.00000000
Si      -2.51812451       2.72035835      -0.04088320       0.00000000
Si       1.06976431       1.09430682      -3.38170848       0.00000000
Si      -2.63262692      -2.64846732      -0.09772231       0.00000000
Si      -0.64467676       3.52283634      -1.23715196       0.00000000
Si       0.11323179       2.72734676       2.64223984       0.00000000
Si       0.03275919      -2.71947543       2.67614141       0.00000000
