10
Lattice="16.290000149 0.0 0.0 0.0 16.290000149 0.0 0.0 0.0 29.1751946751" Properties=species:S:1:pos:R:3:initial_magmoms:R:1 pbc="T T T"
Si      -1.30935763      -1.28886481       1.46996009       0.00000000
Si      -1.34965909       1.36176256      -1.37543538       0.00000000
Si       1.43146747      -1.37197639      -1.28405575       0.00000000
Si       1.37165059       1.40652748       1.31200559       0.00000000
Si      -2.62097957      -2.64904724       0.12435635       0.00000000
Si       2.64859112       0.06195087      -2.72578301       0.00000000
Si       2.74660806      -2.63513558       0.18828212       0.00000000
Si      -2.71270856       2.71044425       0.01430752       0.00000000
Si       2.71124246       0.07076376       2.73368365       0.00000000
Si      -2.73761597      -0.01666467      -2.71831416       0.00000000
