10
Lattice="16.290000149 0.0 0.0 0.0 16.290000149 0.0 0.0 0.0 29.1751946751" Properties=species:S:1:pos:R:3:initial_magmoms:R:1 pbc="T T T"
Si       1.57983679      -1.08256825       1.32595425       0.00000000
Si      -1.23142627      -1.13819860      -1.62613783       0.00000000
Si      -1.60228441      -0.07022619       1.79007324       0.00000000
Si       1.29533194       1.58887774      -1.27976991       0.00000000
H        0.92980063      -1.91192474       2.39866781       0.00000000
H       -0.50733576      -2.82673857       1.84725663       0.00000000
Si      -1.71597233       2.23507110       2.03126458       0.00000000
Si      -2.64707615      -2.46521459      -0.38864277       0.00000000
Si       2.81201241      -2.45211743      -0.09616144       0.00000000
Si       0.12738780      -2.50870889      -2.89056159       0.00000000
