10
Lattice="16.290000149 0.0 0.0 0.0 16.290000149 0.0 0.0 0.0 29.1751946751" Properties=species:S:1:pos:R:3:initial_magmoms:R:1 pbc="T T T"
Si      -1.34780959      -1.41017644       1.30725295       0.00000000
Si       1.34038578      -1.36316350      -1.37266373       0.00000000
Si      -1.43891956       1.34687350      -1.29006876       0.00000000
Si       1.37344960       1.36422235       1.35950572       0.00000000
Si      -2.57998520      -0.04062726       2.72936864       0.00000000
Si      -0.05837463       2.67154373      -2.68006256       0.00000000
Si       2.70985026      -2.70905960      -0.01770934       0.00000000
Si       2.71555176       2.70890685      -0.01167008       0.00000000
Si      -0.02429595      -2.78687694       2.63901306       0.00000000
Si       2.70111882      -0.01518228      -2.72744307       0.00000000
