10
Lattice="16.290000149 0.0 0.0 0.0 16.290000149 0.0 0.0 0.0 29.1751946751" Properties=species:S:1:pos:R:3:initial_magmoms:R:1 pbc="T T T"
Si       1.06676695      -1.46074060      -1.47816124       0.00000000
Si      -1.31703022      -1.36234900       1.38255413       0.00000000
Si      -1.43861878       1.35912358      -1.28662609       0.00000000
Si       1.81485263       0.75605149       1.38450886       0.00000000
Si       2.16564149      -1.19594665       2.74976210       0.00000000
Si       0.28989684      -2.65466729       2.59399573       0.00000000
Si       2.43294410      -0.13289382      -2.83772531       0.00000000
Si      -2.69576696       0.12313611       2.59682573       0.00000000
Si       2.29460942      -2.99475363      -0.23859474       0.00000000
Si      -0.13927950       2.60148044      -2.78445140       0.00000000
