10
Lattice="16.290000149 0.0 0.0 0.0 16.290000149 0.0 0.0 0.0 29.1751946751" Properties=species:S:1:pos:R:3:initial_magmoms:R:1 pbc="T T T"
Si      -1.31162194      -1.36018243      -1.34560374       0.00000000
Si       1.31755150      -1.39090537       1.34127122       0.00000000
Si      -1.41923368       1.33131655       1.30100946       0.00000000
Si       1.30935763       1.28886481      -1.46996009       0.00000000
Si      -0.04702923       2.65921220       2.66410373       0.00000000
Si       2.69531084      -0.02645496       2.64627768       0.00000000
Si       2.68100822       2.69539229      -0.15795450       0.00000000
Si       2.64464894      -2.75017557      -0.02441964       0.00000000
Si      -2.77133628      -0.04359204       2.64703624       0.00000000
Si      -2.77092903       2.64987803      -0.10578926       0.00000000
