10
Lattice="16.290000149 0.0 0.0 0.0 16.290000149 0.0 0.0 0.0 29.1751946751" Properties=species:S:1:pos:R:3:initial_magmoms:R:1 pbc="T T T"
Si       1.33068124      -1.41931513      -1.28569248       0.00000000
Si      -1.34874685      -1.37399961       1.33669072       0.00000000
Si       1.38567628       1.35065278       1.32385363       0.00000000
Si      -1.29990943       1.34938216      -1.41855632       0.00000000
Si       2.66418065      -0.07889247      -2.61423457       0.00000000
Si       0.01410714       2.69739596       2.66019425       0.00000000
Si      -2.67817376       2.69840594      -0.06867841       0.00000000
Si      -2.71344161      -0.01729998       2.67166010       0.00000000
Si      -2.72854244      -0.05478327      -2.66035763       0.00000000
Si       0.03306870      -2.73373895       2.65920229       0.00000000
