10
Lattice="16.290000149 0.0 0.0 0.0 16.290000149 0.0 0.0 0.0 29.1751946751" Properties=species:S:1:pos:R:3:initial_magmoms:R:1 pbc="T T T"
Si       1.34931700       1.34578207       1.31087067       0.00000000
Si      -1.30952053       1.42594516      -1.29873379       0.00000000
Si       1.43637076      -1.33332022      -1.28362104       0.00000000
Si      -1.36878355      -1.25692012       1.43323144       0.00000000
Si      -2.65867463       0.03891681      -2.62252907       0.00000000
Si       0.07431498      -2.69303024      -2.61602301       0.00000000
Si      -0.01633887      -2.61542468       2.74115542       0.00000000
Si      -2.67274919      -2.68837130       0.10438885       0.00000000
Si      -2.60783354       2.78277186       0.11996840       0.00000000
Si       0.06871122       2.75535579      -2.65301715       0.00000000
