10
Lattice="16.290000149 0.0 0.0 0.0 16.290000149 0.0 0.0 0.0 29.1751946751" Properties=species:S:1:pos:R:3:initial_magmoms:R:1 pbc="T T T"
Si       1.36239787      -1.35428545      -1.34836080       0.00000000
Si       1.37264428       1.36985869       1.32694620       0.00000000
Si      -1.35361756       1.35163018      -1.36639107       0.00000000
Si      -1.37588599      -1.34267068       1.35705501       0.00000000
Si       0.00288333       2.72280836       2.65867714       0.00000000
Si       2.68566716      -2.71963181       0.04323764       0.00000000
Si       0.00355122      -2.69897609      -2.71090074       0.00000000
Si      -2.72859131       0.03927519       2.69094491       0.00000000
Si       2.72002277       0.02332728      -2.70246911       0.00000000
Si      -2.72463284      -2.69918786      -0.00046680       0.00000000
