10
Lattice="16.290000149 0.0 0.0 0.0 16.290000149 0.0 0.0 0.0 29.1751946751" Properties=species:S:1:pos:R:3:initial_magmoms:R:1 pbc="T T T"
Si       1.72442684       0.94032397       1.27640718       0.00000000
Si      -0.86558545      -1.72709677       1.38405781       0.00000000
Si       0.73122553      -0.63573355      -2.17908829       0.00000000
Si      -1.70559560       1.66829150       0.12717876       0.00000000
H       -2.91955899      -0.94832236      -0.67073072       0.00000000
Si       0.46654560       2.34069383       2.64163416       0.00000000
Si      -2.36455868      -0.49190913       2.66312752       0.00000000
Si      -0.84378943      -2.32480294      -2.61508240       0.00000000
Si       2.97605271      -1.13992534      -1.89813116       0.00000000
Si      -2.35686980       2.09205956      -2.00517495       0.00000000
