10
Lattice="16.290000149 0.0 0.0 0.0 16.290000149 0.0 0.0 0.0 29.1751946751" Properties=species:S:1:pos:R:3:initial_magmoms:R:1 pbc="T T T"
Si      -1.40396327       1.16870977      -1.45820541       0.00000000
Si      -1.46117375      -1.17745750       1.41454764       0.00000000
Si       1.46041822      -1.27803196      -1.34640606       0.00000000
Si       1.21910794       1.49281561       1.39537954       0.00000000
H       -2.30092326       1.91596466      -0.48069051       0.00000000
Si       2.65182322       0.41394519      -2.53719163       0.00000000
Si      -0.07284220      -2.53680914       2.77037729       0.00000000
Si      -2.85641227      -2.49878828       0.04901433       0.00000000
Si       2.60433787       0.15278391       2.76679166       0.00000000
Si      -0.25022401       2.80412805      -2.64053017       0.00000000
