10
Lattice="16.290000149 0.0 0.0 0.0 16.290000149 0.0 0.0 0.0 29.1751946751" Properties=species:S:1:pos:R:3:initial_magmoms:R:1 pbc="T T T"
H        1.19540908       0.36623178       0.89103962       0.00000000
Si       0.84642841       1.48261807      -1.63462781       0.00000000
Si      -0.78029101      -2.11247093       1.17021706       0.00000000
Si       0.54664354      -2.37193805      -0.73159718       0.00000000
Si      -2.19734183       1.43150005       1.05106556       0.00000000
H        2.60047046      -1.66602719       1.34512235       0.00000000
Si      -3.41394420      -0.14998203      -0.36363963       0.00000000
Si      -0.26031420      -1.20646999       3.26563789       0.00000000
H       -1.91767185      -1.59273847      -2.49109482       0.00000000
Si       1.27671247       3.29670507      -0.14908524       0.00000000
