10
Lattice="16.290000149 0.0 0.0 0.0 16.290000149 0.0 0.0 0.0 29.1751946751" Properties=species:S:1:pos:R:3:initial_magmoms:R:1 pbc="T T T"
H        1.35796699       0.57666601       0.27258384       0.00000000
Si      -0.47061810       0.42189471      -2.21150893       0.00000000
Si      -1.35913987       1.34917039       1.32933857       0.00000000
Si      -0.45981783      -2.20773485       0.60844868       0.00000000
H        2.27413289      -1.19195560      -0.17166685       0.00000000
H        2.94580218      -0.26692794       1.44484317       0.00000000
Si       0.61243885      -2.11851452       2.71066734       0.00000000
Si       1.36114354       1.71374060      -2.84706137       0.00000000
Si      -2.76923812      -2.02486331       1.20656935       0.00000000
Si       0.17366769       2.66991473       2.51650642       0.00000000
