10
Lattice="16.290000149 0.0 0.0 0.0 16.290000149 0.0 0.0 0.0 29.1751946751" Properties=species:S:1:pos:R:3:initial_magmoms:R:1 pbc="T T T"
Si      -1.36876726      -1.34330599       1.34305091       0.00000000
Si      -1.38197845       1.34534224      -1.33671989       0.00000000
Si       1.34983828      -1.36487395      -1.35603387       0.00000000
Si       1.36583506       1.36259335       1.35253285       0.00000000
Si       0.00516393       2.70409115      -2.64158048       0.00000000
Si      -0.00185706      -2.70114266       2.67052227       0.00000000
Si       2.71347419      -0.00425169      -2.68642275       0.00000000
Si      -2.70775640      -2.70617627      -0.02339851       0.00000000
Si      -2.70034445       2.71578737       0.05158174       0.00000000
Si      -2.68713326       0.02015073       2.73377409       0.00000000
