10
Lattice="16.290000149 0.0 0.0 0.0 16.290000149 0.0 0.0 0.0 29.1751946751" Properties=species:S:1:pos:R:3:initial_magmoms:R:1 pbc="T T T"
Si       1.31729086       1.46766385       1.23180589       0.00000000
Si      -1.31839858       1.33120252      -1.39684997       0.00000000
Si      -1.22901535      -1.01103886       1.73606996       0.00000000
Si       1.33296184      -1.42263829      -1.32277415       0.00000000
H        2.01077246       0.33500385       2.15114545       0.00000000
Si       0.20158875      -2.64762317       2.67072650       0.00000000
Si      -2.66066201       2.67322160      -0.02208562       0.00000000
Si       0.00821016       2.56093463       2.79848467       0.00000000
Si      -2.69125463      -0.06559983      -2.68289255       0.00000000
Si       0.08241111       2.66556530      -2.72131628       0.00000000
