10
Lattice="16.290000149 0.0 0.0 0.0 16.290000149 0.0 0.0 0.0 29.1751946751" Properties=species:S:1:pos:R:3:initial_magmoms:R:1 pbc="T T T"
Si       1.35786925      -1.39503000      -1.28744299       0.00000000
Si       1.39132891       1.34459290       1.32764641       0.00000000
Si      -1.32298259      -1.38303079       1.36364860       0.00000000
Si      -1.29315234       1.35391078      -1.43078072       0.00000000
Si      -2.64275556       2.68024259      -0.02310675       0.00000000
Si       2.70387938      -0.06485049      -2.63412913       0.00000000
Si       0.03450222       2.69977430       2.68394286       0.00000000
Si      -2.63638486      -2.76641670      -0.00087526       0.00000000
Si      -2.65459220      -0.04155579      -2.74883724       0.00000000
Si      -2.70311375      -0.03469770       2.70416127       0.00000000
