10
Lattice="16.290000149 0.0 0.0 0.0 16.290000149 0.0 0.0 0.0 29.1751946751" Properties=species:S:1:pos:R:3:initial_magmoms:R:1 pbc="T T T"
Si      -1.53280756      -1.32074434      -1.18716785       0.00000000
Si      -1.41094207       1.17898876       1.46978796       0.00000000
Si       1.38904831      -1.31657410       1.42876763       0.00000000
Si       0.76589065       1.50070486      -1.71672681       0.00000000
H        1.18429930      -2.09324873      -2.24392257       0.00000000
Si      -1.30838023       2.22493220      -2.56528734       0.00000000
Si      -0.17366769      -2.66991473      -2.51650642       0.00000000
Si      -2.57297294       0.21670587      -2.66588341       0.00000000
Si       0.03536559       2.62038662       2.74491902       0.00000000
H       -0.61414930       3.77747184       0.01111575       0.00000000
