10
Lattice="16.290000149 0.0 0.0 0.0 16.290000149 0.0 0.0 0.0 29.1751946751" Properties=species:S:1:pos:R:3:initial_magmoms:R:1 pbc="T T T"
Si      -1.22111470       1.32442588      -1.51614734       0.00000000
Si       1.33452568       1.45272592       1.29847121       0.00000000
Si      -1.61666848      -1.02929995       1.39291132       0.00000000
Si       1.78380389      -1.54250011      -0.63225564       0.00000000
H       -0.85260232      -1.73424971      -1.75552981       0.00000000
H       -0.20465127      -2.16153641      -1.71754371       0.00000000
H        1.34822557       0.61983451      -2.85289641       0.00000000
Si      -0.04650795      -2.30904236       2.51425993       0.00000000
Si       0.03559365       1.08235648      -3.45612274       0.00000000
Si       1.02337039      -3.41863572       0.64439252       0.00000000
