10
Lattice="16.290000149 0.0 0.0 0.0 16.290000149 0.0 0.0 0.0 29.1751946751" Properties=species:S:1:pos:R:3:initial_magmoms:R:1 pbc="T T T"
Si       0.89695999      -0.74725489      -0.97751490       0.00000000
Si      -1.08592399       1.71150887       0.78915926       0.00000000
Si      -1.91907605      -0.28647594       1.87547779       0.00000000
Si      -1.33967332       2.22125555      -1.50611107       0.00000000
Si       2.30092326      -1.91596466       0.48069051       0.00000000
Si      -0.69856408      -1.87212827      -2.31826097       0.00000000
Si       2.05069925       0.88816339      -2.15983966       0.00000000
Si       0.85818979       2.56486052       1.84555863       0.00000000
Si      -0.49037787      -1.65234359       3.20848660       0.00000000
Si      -3.22729338      -1.73281619       0.50513932       0.00000000
