10
Lattice="16.290000149 0.0 0.0 0.0 16.290000149 0.0 0.0 0.0 29.1751946751" Properties=species:S:1:pos:R:3:initial_magmoms:R:1 pbc="T T T"
Si       0.64158166      -1.28709246       0.45685437       0.00000000
Si      -1.49689300       1.49542201       0.67628101       0.00000000
H        2.03911706       0.38089278      -1.37272208       0.00000000
Si      -2.57973655      -0.46779993      -0.20527667       0.00000000
Si       1.13111245       1.26745975      -2.19228248       0.00000000
Si      -0.02642238       2.68118741      -0.73407707       0.00000000
Si      -1.54415681      -1.53510771      -2.09014012       0.00000000
Si      -0.16470819      -2.97328341      -0.93754488       0.00000000
Si      -0.19468179       1.65439613       2.67732009       0.00000000
Si       2.94713796      -1.19540908       0.10074195       0.00000000
