10
Lattice="16.290000149 0.0 0.0 0.0 16.290000149 0.0 0.0 0.0 29.1751946751" Properties=species:S:1:pos:R:3:initial_magmoms:R:1 pbc="T T T"
Si      -1.75148453      -0.32724330       1.48682627       0.00000000
Si       0.11368791      -2.30529729      -0.24119133       0.00000000
Si      -0.99061120       0.85228792      -1.99432878       0.00000000
Si       1.84684619       1.18753938       1.00175948       0.00000000
H       -0.40068513       2.64409346       1.47757773       0.00000000
Si      -2.50968629       2.17064089      -0.79750395       0.00000000
Si       1.71597233      -2.23507110      -2.03126458       0.00000000
Si      -1.06238494       3.49275359       0.41294571       0.00000000
Si       0.39817647      -3.19370503       1.99969702       0.00000000
Si      -3.67020219       0.73060976       0.70609806       0.00000000
