10
Lattice="10.86 0.0 0.0 0.0 10.86 0.0 0.0 0.0 10.86" Properties=species:S:1:pos:R:3:initial_magmoms:R:1 pbc="T T T"
Si      -1.32998076       1.32998076      -1.19978022       0.00000000
Si       1.32900336      -1.32900336      -1.34649882       0.00000000
Si       2.56429578      -2.56429578      -0.02909394       0.00000000
Si       2.56429578       0.15070422       2.68590606       0.00000000
Si      -0.15070422      -2.56429578       2.68590606       0.00000000
Si       2.56429578       0.15070422      -2.74409394       0.00000000
Si      -0.15070422      -2.56429578      -2.74409394       0.00000000
Si       2.56429578       2.86570422      -0.02909394       0.00000000
Si      -2.86570422      -2.56429578      -0.02909394       0.00000000
Si      -0.15070422       2.86570422       2.68590606       0.00000000
