10
Lattice="10.86 0.0 0.0 0.0 10.86 0.0 0.0 0.0 10.86" Properties=species:S:1:pos:R:3:initial_magmoms:R:1 pbc="T T T"
Si      -1.24002738      -1.22345502       1.28218590       0.00000000
Si       1.47497262      -1.22345502      -1.43281410       0.00000000
Si       1.47497262       1.49154498       1.28218590       0.00000000
Si      -1.80278172      -0.11433408      -1.86882138       0.00000000
Si      -2.59752738      -2.58095502      -0.07531410       0.00000000
Si       0.11747262      -2.58095502       2.63968590       0.00000000
Si      -2.59752738       0.13404498       2.63968590       0.00000000
Si       0.11747262      -2.58095502      -2.79031410       0.00000000
Si       2.83247262      -2.58095502      -0.07531410       0.00000000
Si      -2.62867386       2.79464724      -0.28932126       0.00000000
