10
Lattice="10.86 0.0 0.0 0.0 10.86 0.0 0.0 0.0 10.86" Properties=species:S:1:pos:R:3:initial_magmoms:R:1 pbc="T T T"
Si      -1.39635708      -1.14288468       1.21560324       0.00000000
Si       1.31864292      -1.14288468      -1.49939676       0.00000000
Si       1.31864292       1.57211532       1.21560324       0.00000000
Si      -1.43984052       1.64568096      -1.14021312       0.00000000
Si      -0.03885708      -2.50038468       2.57310324       0.00000000
Si      -2.32728714       0.28888686      -2.76643296       0.00000000
Si       2.67614292      -2.50038468      -0.14189676       0.00000000
Si       2.67614292       0.21461532       2.57310324       0.00000000
Si      -2.75385708      -2.50038468      -0.14189676       0.00000000
Si      -0.03885708      -2.50038468      -2.85689676       0.00000000
