10
Lattice="10.86 0.0 0.0 0.0 10.86 0.0 0.0 0.0 10.86" Properties=species:S:1:pos:R:3:initial_magmoms:R:1 pbc="T T T"
Si       1.18791024       1.36746948       1.28656248       0.00000000
Si       1.18791024      -1.34753052      -1.42843752       0.00000000
Si      -1.52708976      -1.34753052       1.28656248       0.00000000
Si       2.54541024       0.00996948       2.64406248       0.00000000
Si       2.54541024      -2.70503052      -0.07093752       0.00000000
Si       2.54541024       2.72496948      -0.07093752       0.00000000
Si       2.54541024       0.00996948      -2.78593752       0.00000000
Si      -0.16958976      -2.70503052       2.64406248       0.00000000
Si      -0.19412250       2.84685126       2.52261510       0.00000000
Si      -2.88961794       2.59910208       0.02631378       0.00000000
