10
Lattice="10.86 0.0 0.0 0.0 10.86 0.0 0.0 0.0 10.86" Properties=species:S:1:pos:R:3:initial_magmoms:R:1 pbc="T T T"
Si       1.29942072       1.32852552       1.25507934       0.00000000
Si       1.35503478      -1.37027136      -1.33261974       0.00000000
Si      -1.41557928      -1.38647448       1.25507934       0.00000000
Si      -1.41557928       1.32852552      -1.45992066       0.00000000
Si      -0.05807928       2.68602552       2.61257934       0.00000000
Si       2.65692072       2.68602552      -0.10242066       0.00000000
Si       2.74411566      -0.02735634       2.63159520       0.00000000
Si      -2.77307928      -0.02897448       2.61257934       0.00000000
Si      -0.15100830      -2.80302030       2.61154764       0.00000000
Si      -2.77307928       2.68602552      -0.10242066       0.00000000
