10
Lattice="10.86 0.0 0.0 0.0 10.86 0.0 0.0 0.0 10.86" Properties=species:S:1:pos:R:3:initial_magmoms:R:1 pbc="T T T"
Si      -1.35475242      -1.34126430       1.27101096       0.00000000
Si       1.36024758      -1.34126430      -1.44398904       0.00000000
Si      -1.35475242       1.37373570      -1.44398904       0.00000000
Si       2.74416996       0.03481716       2.54639850       0.00000000
Si       0.04939128       2.74586412       2.57314668       0.00000000
Si       0.00274758      -2.69876430       2.62851096       0.00000000
Si      -2.71225242       0.01623570       2.62851096       0.00000000
Si      -2.71225242      -2.69876430      -0.08648904       0.00000000
Si       2.71774758      -2.69876430      -0.08648904       0.00000000
Si      -2.71225242       2.73123570      -0.08648904       0.00000000
