10
Lattice="10.86 0.0 0.0 0.0 10.86 0.0 0.0 0.0 10.86" Properties=species:S:1:pos:R:3:initial_magmoms:R:1 pbc="T T T"
Si      -1.18722606       1.46208180      -1.46491626       0.00000000
Si       1.52777394       1.46208180       1.25008374       0.00000000
Si       1.52777394      -1.25291820      -1.46491626       0.00000000
Si      -2.48243310       0.31979442       2.44458600       0.00000000
Si      -2.50175304      -2.52612288      -0.08514240       0.00000000
Si      -0.07655214      -2.54483466       2.50382730       0.00000000
Si      -2.54472606       0.10458180      -2.82241626       0.00000000
Si       0.22108788       2.79352866       2.59725588       0.00000000
Si       0.17027394      -2.61041820      -2.82241626       0.00000000
Si       2.88527394       0.10458180       2.60758374       0.00000000
