10
Lattice="10.86 0.0 0.0 0.0 10.86 0.0 0.0 0.0 10.86" Properties=species:S:1:pos:R:3:initial_magmoms:R:1 pbc="T T T"
Si      -0.89410380      -1.08808512      -1.66371942       0.00000000
Si       1.84230126      -0.97928964       1.14660966       0.00000000
Si      -0.75649674       1.88515482       1.31445096       0.00000000
Si      -2.02282704      -2.40282930      -0.06846144       0.00000000
Si      -2.02282704       0.31217070       2.64653856       0.00000000
Si      -2.02282704       0.31217070      -2.78346144       0.00000000
Si       0.69217296      -2.40282930       2.64653856       0.00000000
Si      -2.02282704       3.02717070      -0.06846144       0.00000000
Si       0.69217296      -2.40282930      -2.78346144       0.00000000
Si      -3.38032704      -1.04532930       1.28903856       0.00000000
