10
Lattice="10.86 0.0 0.0 0.0 10.86 0.0 0.0 0.0 10.86" Properties=species:S:1:pos:R:3:initial_magmoms:R:1 pbc="T T T"
Si      -0.95386638      -1.24396956      -1.54292364       0.00000000
Si      -1.07582418       1.61070090       1.40341608       0.00000000
Si       1.78738224       1.38140286      -1.23653046       0.00000000
Si      -2.34218706      -2.57272314      -0.01756062       0.00000000
Si      -2.34218706       0.14227686       2.69743938       0.00000000
Si      -2.34218706       0.14227686      -2.73256062       0.00000000
Si      -2.34218706       2.85727686      -0.01756062       0.00000000
Si       0.37281294      -2.57272314      -2.73256062       0.00000000
Si       0.37281294       2.85727686       2.69743938       0.00000000
Si       0.37281294       2.85727686      -2.73256062       0.00000000
