10
Lattice="10.86 0.0 0.0 0.0 10.86 0.0 0.0 0.0 10.86" Properties=species:S:1:pos:R:3:initial_magmoms:R:1 pbc="T T T"
Si      -1.33368402       1.16983920      -1.20783834       0.00000000
Si      -1.46784846      -1.25381958       1.18378344       0.00000000
Si       1.38131598       1.16983920       1.50716166       0.00000000
Si       1.38131598      -1.54516080      -1.20783834       0.00000000
Si       0.02381598       2.52733920      -2.56533834       0.00000000
Si      -2.69118402       2.52733920       0.14966166       0.00000000
Si      -2.69118402      -0.18766080      -2.56533834       0.00000000
Si       2.73881598       2.52733920       0.14966166       0.00000000
Si       2.73881598      -0.18766080      -2.56533834       0.00000000
Si       0.02381598       2.52733920       2.86466166       0.00000000
