10
Lattice="10.86 0.0 0.0 0.0 10.86 0.0 0.0 0.0 10.86" Properties=species:S:1:pos:R:3:initial_magmoms:R:1 pbc="T T T"
Si       1.28920146      -1.32272628      -1.38568170       0.00000000
Si       1.28920146       1.39227372       1.32931830       0.00000000
Si      -1.42579854       1.39227372      -1.38568170       0.00000000
Si       2.64670146      -2.68022628      -0.02818170       0.00000000
Si       2.64670146       0.03477372       2.68681830       0.00000000
Si       2.64670146       0.03477372      -2.74318170       0.00000000
Si       2.64670146       2.74977372      -0.02818170       0.00000000
Si      -0.12569364      -2.73117054      -2.69132520       0.00000000
Si      -0.06829854       2.74977372       2.68681830       0.00000000
Si      -2.82382806       0.01699590       2.64789606       0.00000000
