10
Lattice="16.28999089631971 0.0 0.0 0.0 16.28999089631971 0.0 0.0 0.0 34.185847837958455" Properties=species:S:1:pos:R:3:initial_magmoms:R:1 pbc="T T T"
Si       0.20460240       0.18653679       2.35082533       0.00000000
Si      -1.92318274       1.34674873      -0.65089891       0.00000000
Si       1.85036481       1.44349830      -0.68604198       0.00000000
Si       0.45683676      -2.37079773      -0.48701186       0.00000000
Si      -1.96811870      -1.32895449       2.31910084       0.00000000
Si       0.26083548      -2.17668609       2.80789037       0.00000000
Si       2.14664733      -2.70430290       1.13250940       0.00000000
Si      -1.11187395       2.18522924      -2.70276883       0.00000000
Si       2.61438210       0.56195613       2.65446420       0.00000000
Si      -1.07648393       2.24521553       2.84713574       0.00000000
