10
Lattice="16.28999089631971 0.0 0.0 0.0 16.28999089631971 0.0 0.0 0.0 34.185847837958455" Properties=species:S:1:pos:R:3:initial_magmoms:R:1 pbc="T T T"
Si      -1.34931699      -1.35374135       1.39342277       0.00000000
Si       1.36519974       1.36397799       1.39345696       0.00000000
Si       1.32440958      -1.46312219      -1.44093771       0.00000000
Si      -1.50312717       1.30533399      -1.45478299       0.00000000
Si      -2.68113852      -2.71097781       0.04070169       0.00000000
Si       2.70365130       2.70461241       0.03477045       0.00000000
Si       2.70666495      -2.70484766       0.04187769       0.00000000
Si      -2.70739800       2.71423980       0.02424120       0.00000000
Si      -2.70824508       0.00439830       2.75108029       0.00000000
Si       0.00519651      -2.71123334       2.75203750       0.00000000
