10
Lattice="16.28999089631971 0.0 0.0 0.0 16.28999089631971 0.0 0.0 0.0 34.185847837958455" Properties=species:S:1:pos:R:3:initial_magmoms:R:1 pbc="T T T"
Si      -1.28973536       1.86994539      -0.52461631       0.00000000
Si       1.25561691       0.74181402       1.82128625       0.00000000
Si      -0.97805879      -1.99888793       0.70586978       0.00000000
Si      -1.37605607      -2.78101970      -1.43932756       0.00000000
Si      -2.14108334      -0.80573435      -2.60694584       0.00000000
Si       0.86118877      -3.14775647       1.75811077       0.00000000
Si       3.43028304      -0.12181662       1.48058990       0.00000000
Si      -2.87427995       2.10390237       1.17900218       0.00000000
Si       0.14739192       2.56143960      -2.94425779       0.00000000
Si      -2.86279550      -1.66919069       2.13603552       0.00000000
