10
Lattice="16.28999089631971 0.0 0.0 0.0 16.28999089631971 0.0 0.0 0.0 34.185847837958455" Properties=species:S:1:pos:R:3:initial_magmoms:R:1 pbc="T T T"
Si       2.30713641      -0.35486136       0.00666624       0.00000000
Si      -0.93996558      -0.63763947      -2.09405528       0.00000000
Si      -0.70408638      -1.40702594       1.79944148       0.00000000
Si      -0.93374280       2.23868583       0.32791084       0.00000000
Si      -0.65454849       0.17962983       3.50825622       0.00000000
Si      -3.11463171       0.22599117      -1.75335893       0.00000000
Si      -1.85020191       1.98664695       2.52814742       0.00000000
Si       3.21872481       1.79532090      -0.55182826       0.00000000
Si      -2.95951833      -1.79653939       1.49149519       0.00000000
Si       2.60765433      -2.42364968      -1.24853623       0.00000000
