10
Lattice="16.28999089631971 0.0 0.0 0.0 16.28999089631971 0.0 0.0 0.0 34.185847837958455" Properties=species:S:1:pos:R:3:initial_magmoms:R:1 pbc="T T T"
Si      -2.11009257      -1.05426504       0.10707014       0.00000000
Si       1.56957408      -1.52576280      -1.00851726       0.00000000
Si      -0.33835959       2.18903228      -0.96616097       0.00000000
Si       1.12026330       0.33757930       2.13022393       0.00000000
Si      -2.09337903      -2.10777192       2.27380457       0.00000000
Si       1.79667297       3.24073097      -0.94270947       0.00000000
Si       3.11966532      -0.34568015      -2.39280557       0.00000000
Si       0.62060013      -2.76240186      -2.79667740       0.00000000
Si       3.36512304       1.11814560       1.81892742       0.00000000
Si      -2.77074981      -2.23993269      -1.87085575       0.00000000
