10
Lattice="16.28999089631971 0.0 0.0 0.0 16.28999089631971 0.0 0.0 0.0 34.185847837958455" Properties=species:S:1:pos:R:3:initial_magmoms:R:1 pbc="T T T"
Si       2.13503256       1.05169869       0.02345150       0.00000000
Si      -0.95259033       0.33399387      -2.16386282       0.00000000
Si      -1.45645632       1.62135999       1.04058360       0.00000000
Si       0.33835959      -2.18903228       0.96616097       0.00000000
Si       2.21718303       1.57389093      -2.25055818       0.00000000
Si      -1.31685102       0.90357372       3.30943122       0.00000000
Si       0.04921209       2.45979000      -2.76553408       0.00000000
Si       1.81843641       3.11041260       1.02735367       0.00000000
Si       0.26090064      -1.14339510      -3.56332965       0.00000000
Si      -0.38560059       3.70182105       0.68689662       0.00000000
