10
Lattice="16.28999089631971 0.0 0.0 0.0 16.28999089631971 0.0 0.0 0.0 34.185847837958455" Properties=species:S:1:pos:R:3:initial_magmoms:R:1 pbc="T T T"
Si       2.25543195       0.38951345       0.30794629       0.00000000
Si      -1.03143556      -0.61427376       2.02417937       0.00000000
Si      -0.88477832      -1.98962217      -0.95282848       0.00000000
Si      -1.35467966       1.76050591      -1.07473528       0.00000000
Si      -2.71405151      -1.29456045       0.44633068       0.00000000
Si      -3.34739042       0.46101026      -0.93050511       0.00000000
Si      -1.20303605       3.28919209       0.89994295       0.00000000
Si       2.30496984       1.97616922       2.01676103       0.00000000
Si       0.02534724      -3.73749030       0.34572167       0.00000000
Si       2.95951833       1.79653939      -1.49149519       0.00000000
