10
Lattice="16.28999089631971 0.0 0.0 0.0 16.28999089631971 0.0 0.0 0.0 34.185847837958455" Properties=species:S:1:pos:R:3:initial_magmoms:R:1 pbc="T T T"
Si      -1.35672894      -1.35664749      -1.35734985       0.00000000
Si      -1.35384561       1.35651717       1.36179401       0.00000000
Si       1.35855342       1.35892809      -1.35748659       0.00000000
Si       1.35873261      -1.35840681       1.35902495       0.00000000
Si      -2.71912680      -0.02891475       2.70314487       0.00000000
Si       2.71456560      -2.71397427      -0.00102558       0.00000000
Si       0.00107514      -2.71442062      -2.71428946       0.00000000
Si      -2.71440270       0.00180819      -2.71446039       0.00000000
Si      -2.71590138      -2.71439130      -0.00044442       0.00000000
Si       2.71604799       0.00110772      -2.71463132       0.00000000
