10
Lattice="16.28999089631971 0.0 0.0 0.0 16.28999089631971 0.0 0.0 0.0 34.185847837958455" Properties=species:S:1:pos:R:3:initial_magmoms:R:1 pbc="T T T"
Si      -1.41446070       1.28998881       1.32675350       0.00000000
Si       1.34270325       1.35324288      -1.35625590       0.00000000
Si      -1.36881612      -1.36565586      -1.34829059       0.00000000
Si       1.35526284      -1.29916008       1.44001127       0.00000000
Si      -2.38897737      -0.54978750       2.41017199       0.00000000
Si      -0.55172601      -2.20625244       2.63405523       0.00000000
Si       2.70091458       2.69379585       0.02078501       0.00000000
Si       2.69913897      -0.00470781      -2.71083669       0.00000000
Si      -0.01293426       2.70866862      -2.71104181       0.00000000
Si       2.69490357      -2.72474685       0.03172448       0.00000000
