10
Lattice="16.28999089631971 0.0 0.0 0.0 16.28999089631971 0.0 0.0 0.0 34.185847837958455" Properties=species:S:1:pos:R:3:initial_magmoms:R:1 pbc="T T T"
Si       0.07475481      -0.74145564       2.17811833       0.00000000
Si      -2.22835797       0.59388453      -0.41744362       0.00000000
Si       0.50956749      -1.98348669      -1.27431238       0.00000000
Si       1.07132814       2.17347696       0.07055963       0.00000000
Si       1.23163803       2.56223781      -2.22532901       0.00000000
Si       2.27879181      -1.33286409       2.51857538       0.00000000
Si       0.37429533      -1.15123059      -3.49929953       0.00000000
Si       0.25987437       1.12601367       3.58654186       0.00000000
Si      -2.90310606       1.98395910       1.45115587       0.00000000
Si      -2.49074100       1.24644564      -2.71528085       0.00000000
