10
Lattice="16.28999089631971 0.0 0.0 0.0 16.28999089631971 0.0 0.0 0.0 34.185847837958455" Properties=species:S:1:pos:R:3:initial_magmoms:R:1 pbc="T T T"
Si      -1.99271076      -1.29949565       0.14423017       0.00000000
Si       1.35467966      -1.76050591       1.07473528       0.00000000
Si       1.19956628       0.26202465      -2.17011883       0.00000000
Si       0.15164361       1.52868618       1.97467823       0.00000000
Si      -1.47216381       1.87264953      -0.94370086       0.00000000
Si      -1.35937185      -3.05506637       1.52106596       0.00000000
Si       1.89422075       2.48909571      -1.95266253       0.00000000
Si      -3.48897984       0.07317468       1.24375021       0.00000000
Si       0.46990134      -3.75012809       0.12190680       0.00000000
Si       2.46399608       2.02268043       2.11138751       0.00000000
