10
Lattice="16.28999089631971 0.0 0.0 0.0 16.28999089631971 0.0 0.0 0.0 34.185847837958455" Properties=species:S:1:pos:R:3:initial_magmoms:R:1 pbc="T T T"
Si      -1.34522820      -1.35117405      -1.34093038       0.00000000
Si      -1.35651717       1.35728280       1.35823868       0.00000000
Si       1.35910728      -1.35734796       1.35827287       0.00000000
Si       1.36428750       1.35513252      -1.38459940       0.00000000
Si      -2.68848531      -0.04637763      -2.68616133       0.00000000
Si       0.00887805      -2.68091046      -2.71299382       0.00000000
Si      -2.71305063       0.00055386       2.71545178       0.00000000
Si       0.00184077      -2.71422351       2.71521248       0.00000000
Si      -0.13216077       2.59486668      -2.82673704       0.00000000
Si      -2.71194291       2.71852407       0.00341859       0.00000000
