10
Lattice="16.28999089631971 0.0 0.0 0.0 16.28999089631971 0.0 0.0 0.0 34.185847837958455" Properties=species:S:1:pos:R:3:initial_magmoms:R:1 pbc="T T T"
Si       1.34392500       1.33292925      -1.36905167       0.00000000
Si      -1.35915615       1.35249354       1.35417056       0.00000000
Si       1.35542574      -1.36124127       1.35482009       0.00000000
Si      -1.36415718      -1.35451350      -1.37733490       0.00000000
Si      -0.04605183       2.65789269      -2.75243405       0.00000000
Si       2.57978214      -0.12365739      -2.83015562       0.00000000
Si      -0.00125433       2.71249677       2.71203320       0.00000000
Si       2.71332756      -0.00234576       2.71175971       0.00000000
Si      -2.71650085      -0.00309510       2.71179390       0.00000000
Si      -0.00110772      -2.71797021       2.71203320       0.00000000
