10
Lattice="16.28999089631971 0.0 0.0 0.0 16.28999089631971 0.0 0.0 0.0 34.185847837958455" Properties=species:S:1:pos:R:3:initial_magmoms:R:1 pbc="T T T"
Si      -1.36288656      -1.34447886       1.35629009       0.00000000
Si       1.35760860      -1.35565380      -1.36240936       0.00000000
Si      -1.35886293       1.36042677      -1.36128122       0.00000000
Si       1.36378251       1.35809730       1.37283604       0.00000000
Si       2.71324611      -2.71107954      -0.00762345       0.00000000
Si      -2.71577106      -2.71288773      -0.00574323       0.00000000
Si      -0.00061902      -2.71262709      -2.71924641       0.00000000
Si      -2.71577106       2.71702539      -0.00328184       0.00000000
Si       2.71399545       0.00190593      -2.71958827       0.00000000
Si      -2.71639008       0.00239463      -2.71832340       0.00000000
