10
Lattice="16.28999089631971 0.0 0.0 0.0 16.28999089631971 0.0 0.0 0.0 34.185847837958455" Properties=species:S:1:pos:R:3:initial_magmoms:R:1 pbc="T T T"
Si       1.54285848       1.78893522      -0.19646618       0.00000000
Si       0.69581106      -1.70326611      -1.49645214       0.00000000
Si      -2.07731709       0.70617150      -0.93190673       0.00000000
Si       0.26238303      -0.65256111       2.29783723       0.00000000
Si       0.60010731       3.32250840       1.27222704       0.00000000
Si       0.06486678      -0.60170373      -3.65450336       0.00000000
Si      -1.56730977       1.10547198      -3.22718003       0.00000000
Si      -1.31535234      -2.36913615       2.59993774       0.00000000
Si       2.86503633      -2.39767623      -0.78401867       0.00000000
Si       2.49074100      -1.24644564       2.71528085       0.00000000
