10
Lattice="16.28999089631971 0.0 0.0 0.0 16.28999089631971 0.0 0.0 0.0 34.185847837958455" Properties=species:S:1:pos:R:3:initial_magmoms:R:1 pbc="T T T"
Si      -0.94817574      -1.89307719      -1.02591787       0.00000000
Si       2.34080784       0.15556950      -0.26391489       0.00000000
Si      -1.02876237       1.98309314      -0.82941750       0.00000000
Si      -0.11241729      -0.77155956       2.31410971       0.00000000
Si       1.35638685      -2.53244340       1.83656733       0.00000000
Si       2.58087357       2.51401031      -0.34452517       0.00000000
Si      -0.03101616      -3.62035476       0.28452897       0.00000000
Si       3.27893265      -1.29402873       1.38828806       0.00000000
Si      -0.97922448       3.56974892       0.87939724       0.00000000
Si      -3.28419432       1.59357969      -1.13736379       0.00000000
