10
Lattice="16.28999089631971 0.0 0.0 0.0 16.28999089631971 0.0 0.0 0.0 34.185847837958455" Properties=species:S:1:pos:R:3:initial_magmoms:R:1 pbc="T T T"
Si      -1.35692442       1.35656411      -1.35663194       0.00000000
Si       1.35656604       1.35701046       1.35663194       0.00000000
Si       1.35733167      -1.35701336      -1.35693962       0.00000000
Si      -1.35819504      -1.35878897       1.35844379       0.00000000
Si      -0.00084708       2.71327839      -2.71394760       0.00000000
Si      -2.71379997       0.00228940       2.71401598       0.00000000
Si       2.71407690      -0.00189161      -2.71480225       0.00000000
Si      -2.71472850       2.71433724       0.00030767       0.00000000
Si       0.00073305       2.71257792       2.71668247       0.00000000
Si      -2.71471221      -2.71476857       0.00044442       0.00000000
