10
Lattice="16.28999089631971 0.0 0.0 0.0 16.28999089631971 0.0 0.0 0.0 34.185847837958455" Properties=species:S:1:pos:R:3:initial_magmoms:R:1 pbc="T T T"
Si       0.39635199       2.27761893      -0.34572167       0.00000000
Si       1.70355933      -1.25428113      -1.11049370       0.00000000
Si      -1.00592379      -0.00988803       2.26505299       0.00000000
Si      -1.91615197      -1.54299857       0.41433271       0.00000000
Si      -2.67438631      -0.54089316      -1.56444783       0.00000000
Si       2.68768710       2.23656813       0.13783742       0.00000000
Si       3.35383407       0.43680006      -1.29212321       0.00000000
Si      -0.63506565      -3.60167732      -0.08197771       0.00000000
Si       1.77471405      -3.22625798       0.22166116       0.00000000
Si      -0.18298557       2.60006319      -2.61463766       0.00000000
