10
Lattice="16.28999089631971 0.0 0.0 0.0 16.28999089631971 0.0 0.0 0.0 34.185847837958455" Properties=species:S:1:pos:R:3:initial_magmoms:R:1 pbc="T T T"
Si       1.35664749       1.35521397       1.35734985       0.00000000
Si       1.35687555      -1.35750271      -1.35734985       0.00000000
Si      -1.35755973       1.35733167      -1.35734985       0.00000000
Si      -1.35904212      -1.35775032       1.35625590       0.00000000
Si       2.71423980      -0.00096111      -2.71374249       0.00000000
Si       2.71603170       0.00146610       2.71213575       0.00000000
Si       2.71450044       2.71466334      -0.00027349       0.00000000
Si      -0.00009774      -2.71133108       2.71804991       0.00000000
Si       2.71458189      -2.71499203      -0.00006837       0.00000000
Si      -0.00192222       2.71464705      -2.71500737       0.00000000
