10
Lattice="16.28999089631971 0.0 0.0 0.0 16.28999089631971 0.0 0.0 0.0 34.185847837958455" Properties=species:S:1:pos:R:3:initial_magmoms:R:1 pbc="T T T"
Si      -1.42610805      -1.25899776      -1.35256383       0.00000000
Si      -1.22360706       0.57497021       1.94223584       0.00000000
Si       1.73899008      -1.09090125       1.21062411       0.00000000
Si       1.27617489       1.62288962      -1.35119639       0.00000000
Si      -0.00301365       2.64862205       2.10848172       0.00000000
Si       0.01244556      -0.79009921       3.55956921       0.00000000
Si       3.37541832       0.71190395       1.24952762       0.00000000
Si      -0.02420694      -2.43624348      -2.83940974       0.00000000
Si      -3.15740925      -2.26744650       0.01606736       0.00000000
Si       2.75470416      -2.76010497      -0.04512534       0.00000000
