10
Lattice="16.28999089631971 0.0 0.0 0.0 16.28999089631971 0.0 0.0 0.0 34.185847837958455" Properties=species:S:1:pos:R:3:initial_magmoms:R:1 pbc="T T T"
Si      -0.02231730       1.10159496       2.08109884       0.00000000
Si       2.30180958      -0.52294158      -0.22070396       0.00000000
Si      -1.02814335       1.26842085      -1.72587349       0.00000000
Si      -1.01268414      -2.17030041      -0.27478600       0.00000000
Si      -2.24873676      -0.80523099      -1.89211936       0.00000000
Si      -2.27195001       1.70893503       1.77038349       0.00000000
Si       2.35028862      -0.66829725      -2.58482759       0.00000000
Si       0.80430246      -0.70030710       3.39489589       0.00000000
Si      -2.55194253       2.57145795      -0.44739044       0.00000000
Si       0.71386038      -2.47110245      -2.62373110       0.00000000
