10
Lattice="16.28999089631971 0.0 0.0 0.0 16.28999089631971 0.0 0.0 0.0 34.185847837958455" Properties=species:S:1:pos:R:3:initial_magmoms:R:1 pbc="T T T"
Si      -0.31659615       2.05871391       1.00390217       0.00000000
Si       0.08215047       0.52219224      -2.27400968       0.00000000
Si      -2.13503256      -1.05169869      -0.02345150       0.00000000
Si       2.06045694      -0.85590918       0.83068238       0.00000000
Si       0.32382891      -1.79370819      -2.83014537       0.00000000
Si       1.21264389       3.37020552      -0.29126359       0.00000000
Si       1.61536527       2.27683701      -2.34573163       0.00000000
Si      -2.52063315       2.65012236       0.66344512       0.00000000
Si      -2.08582047       1.40809131      -2.78898558       0.00000000
Si      -3.59148888       0.56966130       1.01713210       0.00000000
