10
Lattice="16.28999089631971 0.0 0.0 0.0 16.28999089631971 0.0 0.0 0.0 34.185847837958455" Properties=species:S:1:pos:R:3:initial_magmoms:R:1 pbc="T T T"
Si      -1.57773537       1.82551441       0.08276398       0.00000000
Si      -0.84232332      -1.72196607       1.47623944       0.00000000
Si       1.84005324       0.96102855       1.40142367       0.00000000
Si      -0.41495517      -1.22958453      -2.27076203       0.00000000
Si      -1.99891332      -0.28505775       2.88382542       0.00000000
Si      -1.80291204       2.29008892      -2.37889192       0.00000000
Si      -2.74421340      -2.57774493       0.22042675       0.00000000
Si      -3.38116869       0.95666772       1.40101002       0.00000000
Si       0.73068795       2.43013405       2.87732327       0.00000000
Si       3.23884296       2.19493903      -0.10252341       0.00000000
