10
Lattice="16.28999089631971 0.0 0.0 0.0 16.28999089631971 0.0 0.0 0.0 34.185847837958455" Properties=species:S:1:pos:R:3:initial_magmoms:R:1 pbc="T T T"
Si      -1.35851813       1.35146727       1.35789682       0.00000000
Si       1.35700098      -1.36169739       1.35629009       0.00000000
Si       1.35784806       1.34814411      -1.37054901       0.00000000
Si      -1.35509870      -1.38531789      -1.35697038       0.00000000
Si       2.56211889      -0.06076170      -2.84957319       0.00000000
Si       2.71765581       2.70503595      -0.00006837       0.00000000
Si      -0.00021829       2.71125873       2.71456295       0.00000000
Si      -2.71472428       2.71184517      -0.00598253       0.00000000
Si       2.71439781      -0.00304623       2.71469969       0.00000000
Si      -2.71133596      -2.71802071       0.00010256       0.00000000
