10
Lattice="16.28999089631971 0.0 0.0 0.0 16.28999089631971 0.0 0.0 0.0 34.185847837958455" Properties=species:S:1:pos:R:3:initial_magmoms:R:1 pbc="T T T"
Si       1.40356269      -1.20521565       1.47140074       0.00000000
Si       0.92875806       1.85424183      -1.17104508       0.00000000
Si      -1.81276749      -1.00934469      -1.27145926       0.00000000
Si      -1.29171555       1.49152869       1.49998696       0.00000000
Si       1.15639452       0.75425958      -3.22272018       0.00000000
Si      -3.45087360       0.86319081      -0.99742907       0.00000000
Si      -2.62153341       2.76104097       0.11360989       0.00000000
Si       2.66965407      -2.71718829       0.08895504       0.00000000
Si       0.03267774      -2.54334141       2.84135491       0.00000000
Si      -2.75512770      -2.63886597       0.11838566       0.00000000
