10
Lattice="16.28999089631971 0.0 0.0 0.0 16.28999089631971 0.0 0.0 0.0 34.185847837958455" Properties=species:S:1:pos:R:3:initial_magmoms:R:1 pbc="T T T"
Si       0.80529615       0.56632185      -2.11887422       0.00000000
Si      -0.78643233       1.74941568       1.34593177       0.00000000
Si       1.99171314      -0.63604305       1.16437063       0.00000000
Si      -1.54588842      -1.81711692      -0.36842109       0.00000000
Si      -0.61919919       0.59072427       3.39807517       0.00000000
Si       2.03121639      -1.41701823      -2.52295117       0.00000000
Si       1.47256713      -2.96795655       1.53320195       0.00000000
Si       3.48938316      -1.16848170      -0.65424912       0.00000000
Si       2.15366832       2.49857649      -1.87307784       0.00000000
Si      -0.71926866      -3.61901898       0.94537596       0.00000000
