10
Lattice="16.28999089631971 0.0 0.0 0.0 16.28999089631971 0.0 0.0 0.0 34.185847837958455" Properties=species:S:1:pos:R:3:initial_magmoms:R:1 pbc="T T T"
Si       1.99910880       1.27356849       0.00721322       0.00000000
Si       0.63012978      -1.70528607       1.52954406       0.00000000
Si      -0.06553467      -0.18603180      -2.38552398       0.00000000
Si      -2.15686116       0.98925912       0.68969987       0.00000000
Si      -2.08445211       2.27284596      -1.31755750       0.00000000
Si      -2.26957167       0.40537665      -2.72598103       0.00000000
Si       0.78418431      -0.30696876       3.64503388       0.00000000
Si      -1.26180711      -3.33330867       1.14467957       0.00000000
Si       3.10005216       0.86921811      -2.03799046       0.00000000
Si       1.68627564       3.53769930      -0.26589767       0.00000000
