10
Lattice="16.28999089631971 0.0 0.0 0.0 16.28999089631971 0.0 0.0 0.0 34.185847837958455" Properties=species:S:1:pos:R:3:initial_magmoms:R:1 pbc="T T T"
Si      -1.32507747      -1.39259952      -1.34078679       0.00000000
Si       1.35576783      -1.35394335       1.35895658       0.00000000
Si      -1.35874890       1.35907470       1.35960611       0.00000000
Si       1.38999312       1.35011520      -1.37518803       0.00000000
Si      -2.65489533      -0.12308724      -2.72716386       0.00000000
Si      -0.01428633       2.64337830      -2.76536657       0.00000000
Si      -2.71329498      -2.71129131       0.00300836       0.00000000
Si       2.71523349      -2.71217097      -0.00293998       0.00000000
Si      -0.00001629      -2.71324611       2.71767386       0.00000000
Si      -2.71495656       0.00169416       2.71750294       0.00000000
