10
Lattice="16.28999089631971 0.0 0.0 0.0 16.28999089631971 0.0 0.0 0.0 34.185847837958455" Properties=species:S:1:pos:R:3:initial_magmoms:R:1 pbc="T T T"
Si       1.35656604       1.35640314       1.35707636       0.00000000
Si      -1.35679410       1.35654975      -1.35714473       0.00000000
Si      -1.35896067      -1.35654975       1.35680287       0.00000000
Si       1.35814617      -1.35839052      -1.35697380       0.00000000
Si      -2.71539639       0.00140094       2.71138366       0.00000000
Si       0.00324171       2.71158453       2.71531504       0.00000000
Si      -0.00058644       2.71393029      -2.71504155       0.00000000
Si      -2.71464705       2.71438641      -0.00058116       0.00000000
Si      -2.71492398      -0.00089595      -2.71415272       0.00000000
Si      -2.71451673      -2.71508688       0.00006837       0.00000000
