10
Lattice="16.28999089631971 0.0 0.0 0.0 16.28999089631971 0.0 0.0 0.0 34.185847837958455" Properties=species:S:1:pos:R:3:initial_magmoms:R:1 pbc="T T T"
Si       0.80228250       0.50070573       2.13254857       0.00000000
Si       2.08775898      -0.52432623      -0.91371985       0.00000000
Si      -1.83088197      -1.40343237       0.41932384       0.00000000
Si      -0.79250850       2.24461539      -0.36507087       0.00000000
Si       3.09874896       1.59541002      -0.57353629       0.00000000
Si       2.16290475       2.36032326       1.52308293       0.00000000
Si      -2.35804266       1.87108569      -2.04561391       0.00000000
Si      -2.07769176       2.51356329       1.64003278       0.00000000
Si      -1.03879701       1.28391264       3.32963507       0.00000000
Si      -1.83078423      -2.33728920       2.62126972       0.00000000
