10
Lattice="16.28999089631971 0.0 0.0 0.0 16.28999089631971 0.0 0.0 0.0 34.185847837958455" Properties=species:S:1:pos:R:3:initial_magmoms:R:1 pbc="T T T"
Si       1.35751086      -1.35682668      -1.35697380       0.00000000
Si      -1.35710524       1.35747828      -1.35711055       0.00000000
Si      -1.35750109      -1.35816246       1.35608497       0.00000000
Si       1.35685926       1.35769005       1.35734985       0.00000000
Si       0.00057015       2.71497285       2.71319552       0.00000000
Si      -2.71143517      -0.00229689       2.71675085       0.00000000
Si       2.71437012      -0.00003258      -2.71408435       0.00000000
Si       0.00171045      -2.71477737       2.71422109       0.00000000
Si      -2.71431851       2.71485882       0.00034186       0.00000000
Si      -2.71540508      -0.00231318      -2.71377668       0.00000000
