10
Lattice="16.28999089631971 0.0 0.0 0.0 16.28999089631971 0.0 0.0 0.0 34.185847837958455" Properties=species:S:1:pos:R:3:initial_magmoms:R:1 pbc="T T T"
Si       1.76897997      -0.06415002       1.43628501       0.00000000
Si      -0.66163464       2.24523441      -0.01459737       0.00000000
Si       0.91955421      -0.23607468      -2.14338549       0.00000000
Si      -2.00174778      -1.32900336       0.38462519       0.00000000
Si      -2.16904608       1.48076100      -1.68201303       0.00000000
Si      -1.19029401      -0.28154007      -3.13135704       0.00000000
Si       1.54640970      -2.47638951      -1.97850705       0.00000000
Si       2.08181313      -2.32828083       1.70939590       0.00000000
Si      -3.58050942       0.26612973      -0.23509621       0.00000000
Si      -1.81314216       2.36455866       2.14721430       0.00000000
