10
Lattice="16.28999089631971 0.0 0.0 0.0 16.28999089631971 0.0 0.0 0.0 34.185847837958455" Properties=species:S:1:pos:R:3:initial_magmoms:R:1 pbc="T T T"
Si       0.84380571       1.17263565       1.86572787       0.00000000
Si       1.71199755      -0.95933439      -1.32015562       0.00000000
Si      -1.15795836       1.59221718      -1.32856535       0.00000000
Si      -1.29111282      -1.88406882       0.81933267       0.00000000
Si       1.32768387      -0.66549537       3.27821952       0.00000000
Si      -1.80877644       0.24395904      -3.11436666       0.00000000
Si      -1.14367203       2.26035153       2.63720033       0.00000000
Si       3.15012762      -2.12589387       0.29283614       0.00000000
Si      -3.40096104      -1.92953421      -0.16863888       0.00000000
Si       0.21691764       3.51251496      -1.71582285       0.00000000
