10
Lattice="16.28999089631971 0.0 0.0 0.0 16.28999089631971 0.0 0.0 0.0 34.185847837958455" Properties=species:S:1:pos:R:3:initial_magmoms:R:1 pbc="T T T"
Si       1.35749457       1.35558864       1.35721310       0.00000000
Si       1.35804843      -1.35801585      -1.35676869       0.00000000
Si      -1.35780408       1.35804843      -1.35704217       0.00000000
Si      -1.35790182      -1.35852084       1.35762333       0.00000000
Si      -0.00105885       2.71317018      -2.71490481       0.00000000
Si      -2.71296918       0.00153126       2.71654573       0.00000000
Si       2.71573848       0.00022806       2.71381086       0.00000000
Si       2.71505430       2.71483054       0.00020512       0.00000000
Si      -2.71513575       2.71506179      -0.00010256       0.00000000
Si      -2.71471221      -2.71554300      -0.00058116       0.00000000
