10
Lattice="16.28999089631971 0.0 0.0 0.0 16.28999089631971 0.0 0.0 0.0 34.185847837958455" Properties=species:S:1:pos:R:3:initial_magmoms:R:1 pbc="T T T"
Si       0.84540213       0.73783926       2.09299552       0.00000000
Si       1.98747774      -1.08771588      -0.77147246       0.00000000
Si      -1.72862964      -1.66311126       0.31092046       0.00000000
Si      -0.96032808       1.76855643      -1.42753343       0.00000000
Si       1.14367203      -2.26035153      -2.63720033       0.00000000
Si      -1.90930203       0.53191737      -3.21569357       0.00000000
Si       2.32784100       2.57245164       1.63210166       0.00000000
Si       2.47135590      -2.92584690       0.64101919       0.00000000
Si      -0.85814091       1.92681378       3.28050998       0.00000000
Si      -0.01428633      -0.66813435      -3.96576568       0.00000000
