10
Lattice="16.28999089631971 0.0 0.0 0.0 16.28999089631971 0.0 0.0 0.0 34.185847837958455" Properties=species:S:1:pos:R:3:initial_magmoms:R:1 pbc="T T T"
Si      -1.35423657       1.35906167       1.35482009       0.00000000
Si      -1.35568638      -1.35739646      -1.35738403       0.00000000
Si       1.35936101       1.35777476      -1.35776008       0.00000000
Si       1.36317978      -1.36118979       1.36121285       0.00000000
Si      -0.00079821       2.69348960       2.71681922       0.00000000
Si      -2.71362078       2.71280954       0.00003419       0.00000000
Si      -0.01368360      -2.70968253       2.71702433       0.00000000
Si      -2.71339272       0.00009285      -2.71466551       0.00000000
Si      -2.71324611      -2.71663836      -0.00037604       0.00000000
Si       0.00166158      -2.71531887      -2.71463132       0.00000000
