10
Lattice="16.28999089631971 0.0 0.0 0.0 16.28999089631971 0.0 0.0 0.0 34.185847837958455" Properties=species:S:1:pos:R:3:initial_magmoms:R:1 pbc="T T T"
Si       1.52466322      -1.18355647      -1.36900723       0.00000000
Si       0.98706716       1.86579144       1.10905790       0.00000000
Si      -1.20928815       1.52120907      -1.39102293       0.00000000
Si      -1.30140810      -1.50138251       1.44636984       0.00000000
Si       0.15468984      -2.53347032      -2.74662929       0.00000000
Si      -0.45006012       1.17429723       3.52869937       0.00000000
Si      -2.52094266       2.79306711       0.07042289       0.00000000
Si      -2.56272651       0.18678114      -2.75302205       0.00000000
Si      -2.72359026      -2.65495139      -0.04509116       0.00000000
Si       2.76013592       2.78876655      -0.14125600       0.00000000
