10
Lattice="16.28999089631971 0.0 0.0 0.0 16.28999089631971 0.0 0.0 0.0 34.185847837958455" Properties=species:S:1:pos:R:3:initial_magmoms:R:1 pbc="T T T"
Si      -1.96929810       0.52509186       1.12054435       0.00000000
Si       0.61445947      -1.57141485      -1.62892237       0.00000000
Si       0.79539250      -1.30417740       1.79106594       0.00000000
Si       1.15453324       2.06373123       0.13947834       0.00000000
Si       2.81058605      -0.48938418      -2.12642930       0.00000000
Si      -1.18931661       1.27682649       3.25076827       0.00000000
Si      -3.31767027      -1.40716278       0.87474796       0.00000000
Si       0.88152099       0.13142772       3.63884623       0.00000000
Si      -0.72405792      -1.08351306      -3.57618354       0.00000000
Si      -0.50720544      -3.62445984      -1.23294748       0.00000000
