10
Lattice="16.28999089631971 0.0 0.0 0.0 16.28999089631971 0.0 0.0 0.0 34.185847837958455" Properties=species:S:1:pos:R:3:initial_magmoms:R:1 pbc="T T T"
Si       1.96929810      -0.52509186      -1.12054435       0.00000000
Si      -1.19355201       1.74562011      -1.01631164       0.00000000
Si      -1.34837217      -1.93225464      -0.24579638       0.00000000
Si       0.77998149       0.75173463       2.13022393       0.00000000
Si       2.76469060      -1.82926926       0.67052159       0.00000000
Si      -1.34832330       1.01569779       3.17962748       0.00000000
Si       3.12383134       1.53863937      -0.98106601       0.00000000
Si      -2.15366832      -2.49857649       1.87307784       0.00000000
Si       2.85081909      -0.39366414       2.51830189       0.00000000
Si      -0.18256203       3.86535636      -0.67612808       0.00000000
