10
Lattice="16.28999089631971 0.0 0.0 0.0 16.28999089631971 0.0 0.0 0.0 34.185847837958455" Properties=species:S:1:pos:R:3:initial_magmoms:R:1 pbc="T T T"
Si       1.75255380       0.86530851      -1.31010498       0.00000000
Si      -0.73099746      -1.68366924      -1.57750683       0.00000000
Si       1.52466811      -0.60468480       1.91939969       0.00000000
Si      -1.69266132       1.87672203      -0.06591035       0.00000000
Si       0.70721406       2.80779327      -2.11084054       0.00000000
Si       1.93248826      -0.73210518      -2.97167486       0.00000000
Si      -0.17940177      -1.59472584       3.24576487       0.00000000
Si      -2.76169257      -2.45382786      -0.63835269       0.00000000
Si      -1.66605975      -3.00837204       1.66136476       0.00000000
Si       1.61494077      -2.95047738      -2.13545436       0.00000000
