10
Lattice="16.28999089631971 0.0 0.0 0.0 16.28999089631971 0.0 0.0 0.0 34.185847837958455" Properties=species:S:1:pos:R:3:initial_magmoms:R:1 pbc="T T T"
Si       1.23888954      -1.21705848       1.54873259       0.00000000
Si      -1.95794397      -0.87027696      -1.09241075       0.00000000
Si       1.55537639       0.93201606      -1.63895050       0.00000000
Si      -1.46334699       1.50972462       1.54422005       0.00000000
Si      -0.17330931       0.16446384      -3.33621042       0.00000000
Si       2.46175362       2.72302011       0.05623575       0.00000000
Si       2.68406325      -2.54933613       0.07548923       0.00000000
Si      -0.13810662      -2.55256155       2.91646810       0.00000000
Si       2.57687179       0.16133616       2.91790391       0.00000000
Si      -3.65140350       0.88301574      -1.05081817       0.00000000
