10
Lattice="16.28999089631971 0.0 0.0 0.0 16.28999089631971 0.0 0.0 0.0 34.185847837958455" Properties=species:S:1:pos:R:3:initial_magmoms:R:1 pbc="T T T"
Si       1.35486441      -1.35856971      -1.35847798       0.00000000
Si       1.36251745       1.34887716       1.36268284       0.00000000
Si      -1.36197432       1.35785295      -1.35946937       0.00000000
Si      -1.37073834      -1.36422234       1.37926299       0.00000000
Si      -0.08615781       2.62360224       2.66868552       0.00000000
Si       2.71322072      -2.71453302      -0.00266650       0.00000000
Si       2.71260170       0.00074934      -2.71524667       0.00000000
Si       2.71322072       2.71538010      -0.00020512       0.00000000
Si      -2.71402803      -2.71552671      -0.00006837       0.00000000
Si      -0.00166794      -2.71464705      -2.71552015       0.00000000
