10
Lattice="16.28999089631971 0.0 0.0 0.0 16.28999089631971 0.0 0.0 0.0 34.185847837958455" Properties=species:S:1:pos:R:3:initial_magmoms:R:1 pbc="T T T"
Si      -1.21450095       1.38337938       1.47289808       0.00000000
Si       0.97860546       1.56209697      -1.49587098       0.00000000
Si      -1.70075745      -1.10076417      -1.33646228       0.00000000
Si       1.91467188      -1.29207393       1.23879326       0.00000000
Si       3.15021626       0.83035017       1.27680794       0.00000000
Si       2.36002745       2.73450456      -0.02146872       0.00000000
Si       0.37532160       3.42213804       1.19893254       0.00000000
Si      -0.30597507      -2.42572761      -2.78529351       0.00000000
Si       2.42728072       0.28737189      -2.80187365       0.00000000
Si      -2.94811533       2.66506029       0.01121296       0.00000000
