10
Lattice="16.28999089631971 0.0 0.0 0.0 16.28999089631971 0.0 0.0 0.0 34.185847837958455" Properties=species:S:1:pos:R:3:initial_magmoms:R:1 pbc="T T T"
Si      -0.37467000      -0.44676954       2.27735990       0.00000000
Si       1.61054736       1.51146765      -0.84575835       0.00000000
Si      -2.21557032       0.47099277      -0.69222962       0.00000000
Si       1.09082305      -1.85572422      -0.99716755       0.00000000
Si       0.88211394      -0.61910145      -3.24444389       0.00000000
Si      -1.25302680      -2.64262896       2.11412238       0.00000000
Si      -3.15141453       1.23590601       1.40438960       0.00000000
Si       3.21531110      -1.83555720       0.14364901       0.00000000
Si      -3.22656030      -1.64874348      -1.03241318       0.00000000
Si       1.60238281      -0.46520982       3.48104427       0.00000000
