10
Lattice="16.28999089631971 0.0 0.0 0.0 16.28999089631971 0.0 0.0 0.0 34.185847837958455" Properties=species:S:1:pos:R:3:initial_magmoms:R:1 pbc="T T T"
Si       0.03554478       1.97296335       1.21906802       0.00000000
Si       1.63989801      -1.16721108      -1.16204599       0.00000000
Si      -1.13684652       0.51546447      -2.03501629       0.00000000
Si      -0.81777429      -1.76423958       1.56574689       0.00000000
Si      -2.49746877      -1.34415306      -1.42555065       0.00000000
Si      -1.36676358      -3.09910734      -0.27587995       0.00000000
Si       1.46437326       1.10390814       2.98073411       0.00000000
Si       0.76154121      -3.36307050      -1.32528350       0.00000000
Si      -2.31285420       2.70760977       1.17007967       0.00000000
Si       3.61695082      -1.18565136       0.04163839       0.00000000
