10
Lattice="16.28999089631971 0.0 0.0 0.0 16.28999089631971 0.0 0.0 0.0 34.185847837958455" Properties=species:S:1:pos:R:3:initial_magmoms:R:1 pbc="T T T"
Si       1.35700587       1.35490446      -1.35878565       0.00000000
Si       1.35697329      -1.35729909       1.35676869       0.00000000
Si      -1.35804843       1.35801585       1.35676869       0.00000000
Si      -1.35870003      -1.35798327      -1.35827287       0.00000000
Si       2.71226871       0.00006516       2.71322970       0.00000000
Si       2.71722087      -0.00001629      -2.71025553       0.00000000
Si      -0.00055386       2.71360449       2.71398179       0.00000000
Si       2.71435383       2.71492398      -0.00027349       0.00000000
Si      -0.00154755      -2.71551042       2.71384505       0.00000000
Si       2.71539639      -2.71461447      -0.00037604       0.00000000
