10
Lattice="16.28999089631971 0.0 0.0 0.0 16.28999089631971 0.0 0.0 0.0 34.185847837958455" Properties=species:S:1:pos:R:3:initial_magmoms:R:1 pbc="T T T"
Si       1.93740880      -1.22134275      -0.46065456       0.00000000
Si       0.08612849       1.43560512       1.84778029       0.00000000
Si      -0.79539250       1.30417740      -1.79106594       0.00000000
Si      -1.42897576      -1.83778893       0.54830712       0.00000000
Si      -2.76469060       1.82926926      -0.67052159       0.00000000
Si      -0.18093303      -0.26723745      -3.41998831       0.00000000
Si      -0.91549867      -0.09099594       3.32884879       0.00000000
Si      -1.98470911       2.58100389       1.45970233       0.00000000
Si       1.24275433      -3.44841381      -0.67811086       0.00000000
Si       0.35914074       3.36790863      -1.65158760       0.00000000
