10
Lattice="16.28999089631971 0.0 0.0 0.0 16.28999089631971 0.0 0.0 0.0 34.185847837958455" Properties=species:S:1:pos:R:3:initial_magmoms:R:1 pbc="T T T"
Si       1.28907657      -1.45474587       1.31000242       0.00000000
Si      -1.34131860      -1.36231641      -1.36080262       0.00000000
Si       1.37686338       1.34849273      -1.35581148       0.00000000
Si      -1.50141672       1.22701167       1.34572665       0.00000000
Si      -0.07923456       2.38058055       2.83718766       0.00000000
Si      -2.68576488      -2.73074157       0.00560648       0.00000000
Si      -2.69956251      -0.00695583      -2.71740038       0.00000000
Si       0.01368360       2.70968253      -2.71702433       0.00000000
Si       0.01326006      -2.72049516      -2.71815247       0.00000000
Si      -2.72038113       2.72348342       0.00755508       0.00000000
