10
Lattice="16.28999089631971 0.0 0.0 0.0 16.28999089631971 0.0 0.0 0.0 34.185847837958455" Properties=species:S:1:pos:R:3:initial_magmoms:R:1 pbc="T T T"
Si      -1.21896441       1.49647175      -1.33817158       0.00000000
Si       1.50141672      -1.22701167      -1.34572665       0.00000000
Si       1.42218216       1.15356888       1.49146100       0.00000000
Si      -1.13622750      -1.57879422       1.47135971       0.00000000
Si      -0.51551334       1.89321470       2.76601268       0.00000000
Si      -2.15194158       0.09040950       2.72710916       0.00000000
Si       2.18720943      -0.82171647       2.65907929       0.00000000
Si      -2.55526569       0.12893535      -2.70201674       0.00000000
Si       0.16009812      -2.58932808      -2.70652927       0.00000000
Si       2.72359026       2.65495139       0.04509116       0.00000000
