10
Lattice="16.28999089631971 0.0 0.0 0.0 16.28999089631971 0.0 0.0 0.0 34.185847837958455" Properties=species:S:1:pos:R:3:initial_magmoms:R:1 pbc="T T T"
Si      -0.03554478      -1.97296335      -1.21906802       0.00000000
Si       1.39452174       1.60744833      -0.99097991       0.00000000
Si       1.42882848      -0.86905521       1.76166610       0.00000000
Si      -2.34839898       0.73464642      -0.04898835       0.00000000
Si       3.53025218       0.01342296       1.06533417       0.00000000
Si       0.29592414      -0.22815774       3.72014023       0.00000000
Si      -1.17239130      -1.45749888      -3.25408430       0.00000000
Si      -0.85331907      -3.73720293       0.34667888       0.00000000
Si       3.07713769       2.28773502       0.58686878       0.00000000
Si      -3.72327498      -1.18565136       0.33826915       0.00000000
