10
Lattice="16.28999089631971 0.0 0.0 0.0 16.28999089631971 0.0 0.0 0.0 34.185847837958455" Properties=species:S:1:pos:R:3:initial_magmoms:R:1 pbc="T T T"
Si       1.57773537       1.71657504      -0.30210051       0.00000000
Si      -0.22840209      -1.60122555      -1.71295123       0.00000000
Si      -1.81107659       1.58342058       0.39395793       0.00000000
Si       0.50710770      -1.46600226       1.90234094       0.00000000
Si      -0.90968247       1.93135869       2.59480986       0.00000000
Si       0.90298728       3.10664961       1.56649898       0.00000000
Si       0.96725133      -3.40824267      -0.73284243       0.00000000
Si      -0.58722192      -0.25374933       3.59348159       0.00000000
Si       1.31535234       2.36913615      -2.59993774       0.00000000
Si      -2.54075456      -2.09521980      -1.84966052       0.00000000
