10
Lattice="16.28999089631971 0.0 0.0 0.0 16.28999089631971 0.0 0.0 0.0 34.185847837958455" Properties=species:S:1:pos:R:3:initial_magmoms:R:1 pbc="T T T"
Si      -1.09432962       1.21225293       1.69114065       0.00000000
Si      -0.61773309      -2.25207621      -0.53384650       0.00000000
Si       2.30288472      -0.23322393       0.74480748       0.00000000
Si      -0.50710770       1.46600226      -1.90234094       0.00000000
Si       0.46014363      -1.94224041      -2.63518337       0.00000000
Si      -0.73550979      -0.13522329      -3.61529217       0.00000000
Si      -1.41679017       3.39736095       0.69246892       0.00000000
Si      -3.26818288       0.28966878       1.90510999       0.00000000
Si       3.37374045       1.84723713       0.39112050       0.00000000
Si       0.09935271      -3.73252607       1.18693330       0.00000000
