10
Lattice="16.28999089631971 0.0 0.0 0.0 16.28999089631971 0.0 0.0 0.0 34.185847837958455" Properties=species:S:1:pos:R:3:initial_magmoms:R:1 pbc="T T T"
Si      -1.70406988      -0.99004104       1.32636518       0.00000000
Si      -1.52466811       0.60468480      -1.91939969       0.00000000
Si       1.75873519      -1.81478745      -0.22535323       0.00000000
Si       1.19704133       1.90232991       1.23426504       0.00000000
Si      -0.26550296      -2.19805857       2.72425605       0.00000000
Si       0.22788570       1.46999331      -3.22950466       0.00000000
Si       2.44744381       0.53540343       2.71067742       0.00000000
Si       3.65171464      -0.87350238       1.23165324       0.00000000
Si      -3.19072786      -2.40368724      -0.25803492       0.00000000
Si       1.07811130      -3.61293141       1.36362094       0.00000000
