10
Lattice="16.28999089631971 0.0 0.0 0.0 16.28999089631971 0.0 0.0 0.0 34.185847837958455" Properties=species:S:1:pos:R:3:initial_magmoms:R:1 pbc="T T T"
Si       1.35565380       1.35703453       1.35670032       0.00000000
Si       1.35739683      -1.35707725      -1.35738403       0.00000000
Si      -1.35786109       1.35796143      -1.35793101       0.00000000
Si      -1.35865116      -1.35984655       1.35680287       0.00000000
Si       2.71319724      -0.00104878      -2.71476807       0.00000000
Si       0.00135207       2.71528333       2.71387923       0.00000000
Si       2.71484253      -2.71432747      -0.00006837       0.00000000
Si       2.71575477       0.00273050       2.71350319       0.00000000
Si       2.71482624       2.71477834      -0.00020512       0.00000000
Si      -2.71137995      -0.00358349       2.71839177       0.00000000
