10
Lattice="16.28999089631971 0.0 0.0 0.0 16.28999089631971 0.0 0.0 0.0 34.185847837958455" Properties=species:S:1:pos:R:3:initial_magmoms:R:1 pbc="T T T"
Si       1.33985250      -1.31864292      -1.43375526       0.00000000
Si      -0.97966431      -1.82886201       1.19469349       0.00000000
Si      -1.36373527       1.37635839      -1.43043923       0.00000000
Si      -1.87634410      -0.20308743       2.61022768       0.00000000
Si      -0.64079973       1.91933667       2.64824237       0.00000000
Si       2.66527206       2.68477119      -0.01046088       0.00000000
Si       2.65882122      -2.74849767      -0.11465940       0.00000000
Si      -2.81241053       2.65108347      -0.12443656       0.00000000
Si      -0.01303200      -2.68705179      -2.79578857       0.00000000
Si       2.70273906       0.02583594      -2.79004534       0.00000000
