10
Lattice="16.28999089631971 0.0 0.0 0.0 16.28999089631971 0.0 0.0 0.0 34.185847837958455" Properties=species:S:1:pos:R:3:initial_magmoms:R:1 pbc="T T T"
Si      -1.28573712       1.41088808       1.39574741       0.00000000
Si       1.38997683      -1.32496344       1.38338238       0.00000000
Si      -1.84757922      -0.88495425      -1.18638906       0.00000000
Si       1.75337415       0.92229093      -1.41090683       0.00000000
Si       3.35676627      -0.87566895      -1.26647527       0.00000000
Si      -2.68132911       2.68777085       0.03223044       0.00000000
Si       2.71981098       2.65874370      -0.08589199       0.00000000
Si       2.62583397      -2.78155008      -0.07772157       0.00000000
Si       0.04605183      -2.65789269       2.75243405       0.00000000
Si      -2.67106641       0.05607018       2.74528921       0.00000000
