10
Lattice="16.28999089631971 0.0 0.0 0.0 16.28999089631971 0.0 0.0 0.0 34.185847837958455" Properties=species:S:1:pos:R:3:initial_magmoms:R:1 pbc="T T T"
Si      -1.44867526       1.27472508       1.30600267       0.00000000
Si      -1.36251745      -1.34887716      -1.36268284       0.00000000
Si       1.35070327       1.36650294      -1.36288796       0.00000000
Si       1.36373527      -1.37635839       1.43043923       0.00000000
Si      -0.06725326       2.44713267       2.78040493       0.00000000
Si      -2.42728072      -0.28737189       2.80187365       0.00000000
Si       2.70358777      -2.69500131      -0.00331603       0.00000000
Si       2.70813268       2.71803537       0.02016966       0.00000000
Si       2.70761140       0.00990432      -2.72088734       0.00000000
Si      -0.00765304      -2.70744687      -2.72116082       0.00000000
