10
Lattice="10.86 0.0 0.0 0.0 10.86 0.0 0.0 0.0 10.86" Properties=species:S:1:pos:R:3:initial_magmoms:R:1 pbc="T T T"
Si      -1.28392350      -1.33580172       1.14716352       0.00000000
Si       1.32798252       1.26585246       1.25332002       0.00000000
Si      -1.28392350       1.37919828      -1.56783648       0.00000000
Si       1.43107650      -1.33580172      -1.56783648       0.00000000
Si       0.06425862       2.69985030       2.37608112       0.00000000
Si      -2.64142350       0.02169828       2.50466352       0.00000000
Si       0.07357650      -2.69330172       2.50466352       0.00000000
Si      -2.64142350      -2.69330172      -0.21033648       0.00000000
Si      -2.64142350       2.73669828      -0.21033648       0.00000000
Si       0.16679874       2.63539620      -2.80188000       0.00000000
