10
Lattice="10.86 0.0 0.0 0.0 10.86 0.0 0.0 0.0 10.86" Properties=species:S:1:pos:R:3:initial_magmoms:R:1 pbc="T T T"
Si      -1.26427776       1.25619792       1.48095648       0.00000000
Si       1.35750000       1.35750000      -1.35750000       0.00000000
Si      -1.35750000      -1.35750000      -1.35750000       0.00000000
Si       1.47230106      -1.34881200       1.27575678       0.00000000
Si       0.02331642       2.70859260       2.52167028       0.00000000
Si       2.71500000       2.71500000       0.00000000       0.00000000
Si       2.71500000       0.00000000      -2.71500000       0.00000000
Si       0.00000000      -2.71500000      -2.71500000       0.00000000
Si      -2.71500000       0.00000000      -2.71500000       0.00000000
Si       0.00000000      -2.71500000       2.71500000       0.00000000
