10
Lattice="10.86 0.0 0.0 0.0 10.86 0.0 0.0 0.0 10.86" Properties=species:S:1:pos:R:3:initial_magmoms:R:1 pbc="T T T"
Si       1.59337920      -1.47328932      -0.98738034       0.00000000
Si      -0.71791116       1.75036050      -1.60828998       0.00000000
Si      -1.12162080      -1.47328932       1.72761966       0.00000000
Si       1.59337920       1.24171068       1.72761966       0.00000000
Si      -2.48661420       2.45866056       0.56252628       0.00000000
Si      -2.46741372       0.11269422      -2.54722386       0.00000000
Si       0.23587920      -2.83078932      -2.34488034       0.00000000
Si      -2.47912080      -2.83078932       0.37011966       0.00000000
Si       2.97827898       0.15099744      -2.54743020       0.00000000
Si      -2.47912080      -0.11578932       3.08511966       0.00000000
