10
Lattice="10.86 0.0 0.0 0.0 10.86 0.0 0.0 0.0 10.86" Properties=species:S:1:pos:R:3:initial_magmoms:R:1 pbc="T T T"
Si      -1.14789114       1.56698940      -1.02906102       0.00000000
Si       1.56710886      -1.14801060      -1.02906102       0.00000000
Si      -1.14789114      -1.14801060       1.68593898       0.00000000
Si       0.84803568       1.38640932       1.88027868       0.00000000
Si      -2.50539114       0.20948940      -2.38656102       0.00000000
Si       0.20960886      -2.50551060      -2.38656102       0.00000000
Si      -2.50539114      -2.50551060       0.32843898       0.00000000
Si       2.82414300       0.13936638      -2.42926254       0.00000000
Si       0.16382310       2.83361292      -2.50189422       0.00000000
Si      -2.50539114       2.92448940       0.32843898       0.00000000
