10
Lattice="10.86 0.0 0.0 0.0 10.86 0.0 0.0 0.0 10.86" Properties=species:S:1:pos:R:3:initial_magmoms:R:1 pbc="T T T"
Si       1.48339998      -1.36201776      -1.15669860       0.00000000
Si      -1.23160002      -1.36201776       1.55830140       0.00000000
Si      -1.95067320       1.17240216      -0.96235890       0.00000000
Si       1.48339998       1.35298224       1.55830140       0.00000000
Si       0.12589998      -2.71951776      -2.51419860       0.00000000
Si      -2.58910002      -2.71951776       0.20080140       0.00000000
Si      -2.78335284       2.66307834       0.27391092       0.00000000
Si       2.67959640      -0.21332298      -2.78401530       0.00000000
Si      -2.58910002      -0.00451776       2.91580140       0.00000000
Si       2.72749986       2.82327420       0.06262962       0.00000000
