10
Lattice="16.28999089631971 0.0 0.0 0.0 16.28999089631971 0.0 0.0 0.0 34.450931932916035" Properties=species:S:1:pos:R:3:initial_magmoms:R:1 pbc="T T T"
Si       1.35689184      -1.35518302      -1.35778089       0.00000000
Si      -1.35683320       1.35638685      -1.35843546       0.00000000
Si      -1.36766930      -1.35164157       1.36594576       0.00000000
Si       1.35553977       1.37381715       1.37121676       0.00000000
Si       2.71036278       2.71347417      -0.00048231       0.00000000
Si      -2.71632637      -2.71110302       0.00037896       0.00000000
Si      -2.71359630       2.71489140       0.00699354       0.00000000
Si       2.71327869      -2.71533321       0.00327284       0.00000000
Si       2.71415835       0.00043983      -2.71518282       0.00000000
Si      -0.00014661       2.71507059      -2.71490721       0.00000000
