10
Lattice="16.28999089631971 0.0 0.0 0.0 16.28999089631971 0.0 0.0 0.0 34.450931932916035" Properties=species:S:1:pos:R:3:initial_magmoms:R:1 pbc="T T T"
Si       1.60193091       1.04858730      -1.37958834       0.00000000
Si      -1.32735481       1.12721882       1.60351952       0.00000000
Si       1.41264111      -1.44998919       1.26703708       0.00000000
Si      -1.06893677      -1.35267273      -1.69691605       0.00000000
Si       1.01562123      -2.13897474      -2.50830485       0.00000000
Si      -1.98453155       2.88991835      -0.07313937       0.00000000
Si       2.60759406      -2.39314761      -0.81324915       0.00000000
Si       1.82075448      -0.14662629      -3.40117016       0.00000000
Si       2.56411605      -0.16878069       2.98022574       0.00000000
Si      -0.10598763       2.42695003       3.14895616       0.00000000
