10
Lattice="16.28999089631971 0.0 0.0 0.0 16.28999089631971 0.0 0.0 0.0 34.450931932916035" Properties=species:S:1:pos:R:3:initial_magmoms:R:1 pbc="T T T"
Si       1.35198855       1.34060184       1.37038649       0.00000000
Si       1.30683267      -1.44541659      -1.33365144       0.00000000
Si      -1.36603053      -1.37390674       1.36614902       0.00000000
Si      -1.33382520       1.42539129      -1.40417943       0.00000000
Si      -0.39382704      -1.97310507      -2.92118370       0.00000000
Si      -2.41307028      -0.23649822      -2.62787997       0.00000000
Si       2.70430290       2.68512957      -0.00414100       0.00000000
Si      -2.72789082       2.68563456       0.01786626       0.00000000
Si      -0.00684180       2.69747739       2.72734056       0.00000000
Si       2.70730026      -0.01490535       2.72689269       0.00000000
