10
Lattice="16.28999089631971 0.0 0.0 0.0 16.28999089631971 0.0 0.0 0.0 34.450931932916035" Properties=species:S:1:pos:R:3:initial_magmoms:R:1 pbc="T T T"
Si       1.35672894       1.35859089      -1.35685071       0.00000000
Si      -1.35638685      -1.35818947      -1.35778089       0.00000000
Si       1.35783666      -1.35730314       1.35753973       0.00000000
Si      -1.35775521       1.35806961       1.35760863       0.00000000
Si       0.00029322      -2.71420952      -2.71263345       0.00000000
Si       0.00141723       2.71409808      -2.71335692       0.00000000
Si       2.71487511      -2.71482854       0.00003445       0.00000000
Si      -2.71503801      -2.71474709       0.00013780       0.00000000
Si      -2.71502172       0.00244676       2.71501056       0.00000000
Si      -2.71510317       2.71496145       0.00024116       0.00000000
