10
Lattice="16.28999089631971 0.0 0.0 0.0 16.28999089631971 0.0 0.0 0.0 34.450931932916035" Properties=species:S:1:pos:R:3:initial_magmoms:R:1 pbc="T T T"
Si       1.77521904      -0.82348135      -1.26431546       0.00000000
Si      -1.04995566      -1.86895726       0.99701053       0.00000000
Si      -1.65729573       0.87167790      -1.45393349       0.00000000
Si       1.13652072       1.33531899       1.64272471       0.00000000
Si       3.05359308      -1.95562006       0.34116777       0.00000000
Si      -3.19327983      -0.98703295       1.45300332       0.00000000
Si      -1.51275456      -3.28317361      -0.88442482       0.00000000
Si       1.30554576       3.43926046       0.64592088       0.00000000
Si      -3.73899483       0.26806335      -0.51624750       0.00000000
Si      -0.90021798       0.40476577      -3.69269410       0.00000000
