10
Lattice="16.28999089631971 0.0 0.0 0.0 16.28999089631971 0.0 0.0 0.0 34.450931932916035" Properties=species:S:1:pos:R:3:initial_magmoms:R:1 pbc="T T T"
Si       1.08201438       1.88678925      -1.02167741       0.00000000
Si       1.45088514      -1.01946078       1.64937374       0.00000000
Si      -0.54265248      -2.00611350      -1.28825887       0.00000000
Si      -2.07526455       1.11780351       0.68719312       0.00000000
Si      -3.47209947      -0.75469941       0.32811086       0.00000000
Si      -0.66898143      -3.57947175       0.48713645       0.00000000
Si      -2.55373443       2.53544076      -1.21177776       0.00000000
Si      -2.85475734      -1.90350279      -1.64034759       0.00000000
Si       1.20080106       0.31708485       3.61800444       0.00000000
Si       1.82029347       1.29710754      -3.20039001       0.00000000
