10
Lattice="16.28999089631971 0.0 0.0 0.0 16.28999089631971 0.0 0.0 0.0 34.450931932916035" Properties=species:S:1:pos:R:3:initial_magmoms:R:1 pbc="T T T"
Si      -1.32115158      -0.16083117       1.89717943       0.00000000
Si      -1.60305003      -0.30144808      -1.72823197       0.00000000
Si       0.51681654       2.25856289      -0.56599468       0.00000000
Si       1.82488725      -1.61170395       0.34623206       0.00000000
Si      -2.02929417      -2.35345281       1.49761730       0.00000000
Si       2.69161299       1.83875330      -1.48766097       0.00000000
Si       3.46548573      -0.36119002      -0.83674470       0.00000000
Si      -3.48226443       0.74751063      -0.61632752       0.00000000
Si       0.20375532      -0.23460858       3.69183283       0.00000000
Si      -3.05232246       1.44062570       1.56076589       0.00000000
