10
Lattice="16.28999089631971 0.0 0.0 0.0 16.28999089631971 0.0 0.0 0.0 34.450931932916035" Properties=species:S:1:pos:R:3:initial_magmoms:R:1 pbc="T T T"
Si       1.35200484      -1.35992178       1.35733303       0.00000000
Si       1.35625653       1.35661491      -1.35740193       0.00000000
Si      -1.35850455      -1.35832536      -1.35709187       0.00000000
Si      -1.35866745       1.35760860       1.36132934       0.00000000
Si       2.71368594      -0.00074934      -2.71497611       0.00000000
Si      -0.00281817      -2.69957880       2.72903210       0.00000000
Si      -0.00094482       2.71463076      -2.71445935       0.00000000
Si      -2.71610989       2.71406061      -0.00062012       0.00000000
Si       2.71511946      -2.71505430      -0.00031006       0.00000000
Si      -0.00154755      -2.71606428      -2.71473495       0.00000000
