10
Lattice="16.28999089631971 0.0 0.0 0.0 16.28999089631971 0.0 0.0 0.0 34.450931932916035" Properties=species:S:1:pos:R:3:initial_magmoms:R:1 pbc="T T T"
Si       1.42547274      -1.23406524       1.38940686       0.00000000
Si       1.35482301       1.33965702      -1.37169907       0.00000000
Si      -1.35553977      -1.37381715      -1.37121676       0.00000000
Si      -1.23970158       1.32452361       1.64430945       0.00000000
Si      -0.44373960      -2.25844560       2.59897976       0.00000000
Si      -2.23153452      -0.48071790       3.02358773       0.00000000
Si      -2.70462870       2.69428455       0.03021348       0.00000000
Si       2.52913653       0.47024343       2.83241940       0.00000000
Si       0.00281817       2.69957880      -2.72903210       0.00000000
Si       2.72671794       2.71287144      -0.00871609       0.00000000
