10
Lattice="16.28999089631971 0.0 0.0 0.0 16.28999089631971 0.0 0.0 0.0 34.450931932916035" Properties=species:S:1:pos:R:3:initial_magmoms:R:1 pbc="T T T"
Si      -1.35482301      -1.33965702       1.37169907       0.00000000
Si      -1.35200484       1.35992178      -1.35733303       0.00000000
Si       1.36311462      -1.35513252      -1.35764308       0.00000000
Si       1.37189493       1.37321442       1.36298298       0.00000000
Si       0.07064973      -2.57372226       2.76110593       0.00000000
Si      -2.71036278      -2.71347417       0.00048231       0.00000000
Si      -2.71050939       0.00159642      -2.71442489       0.00000000
Si       0.00379557      -2.71303434      -2.71470050       0.00000000
Si      -2.71067229       2.71753038       0.00399631       0.00000000
Si       2.71635750      -2.71324611       0.00182590       0.00000000
