10
Lattice="16.28999089631971 0.0 0.0 0.0 16.28999089631971 0.0 0.0 0.0 34.450931932916035" Properties=species:S:1:pos:R:3:initial_magmoms:R:1 pbc="T T T"
Si      -2.07840852      -0.99012249       0.47252925       0.00000000
Si       1.55734029      -1.63877400       0.66262960       0.00000000
Si       0.20261502       0.58660290      -2.27341827       0.00000000
Si       0.43598556       2.04452532       1.21150215       0.00000000
Si      -3.07884258       1.14443766       0.33152150       0.00000000
Si       2.29561938      -2.22845571      -1.51608301       0.00000000
Si       2.81548215      -0.46338534       2.34631648       0.00000000
Si      -1.59993864      -2.40775974       2.37150013       0.00000000
Si       2.21304537      -0.36214299      -3.02982335       0.00000000
Si      -0.29510964       3.76113294      -0.42846648       0.00000000
