10
Lattice="16.28999089631971 0.0 0.0 0.0 16.28999089631971 0.0 0.0 0.0 34.450931932916035" Properties=species:S:1:pos:R:3:initial_magmoms:R:1 pbc="T T T"
Si       1.64304198      -0.59921136       1.61798892       0.00000000
Si       0.25008408      -1.33654563      -1.96863070       0.00000000
Si      -2.31712218      -0.09001854       0.64316481       0.00000000
Si       0.29913327       2.27255274      -0.78293232       0.00000000
Si       3.52140930       0.30257046       0.48761876       0.00000000
Si      -3.30229251       1.61388288      -0.64895257       0.00000000
Si      -1.74337209       3.29277915      -0.29889645       0.00000000
Si       1.38684915       0.95778684       3.42711172       0.00000000
Si      -1.20080106      -0.31708485      -3.61800444       0.00000000
Si      -0.26673246      -3.59510852      -1.40263603       0.00000000
