10
Lattice="16.28999089631971 0.0 0.0 0.0 16.28999089631971 0.0 0.0 0.0 34.450931932916035" Properties=species:S:1:pos:R:3:initial_magmoms:R:1 pbc="T T T"
Si      -0.21727602       2.16316539       0.67596211       0.00000000
Si       2.19388833      -0.27039771       0.68457485       0.00000000
Si      -1.31266449      -1.40437719       1.36997652       0.00000000
Si      -0.10782351      -0.06051735      -2.49035591       0.00000000
Si       3.07667601       0.29409966      -1.45176308       0.00000000
Si       1.24322022       2.26352808       2.53951742       0.00000000
Si       0.47483721       3.46001229      -1.10112130       0.00000000
Si       1.93468185      -1.08074376      -2.97439177       0.00000000
Si      -1.66674393      -1.73941362      -2.84041202       0.00000000
Si      -3.50500527      -0.34124292       1.50671235       0.00000000
