10
Lattice="16.28999089631971 0.0 0.0 0.0 16.28999089631971 0.0 0.0 0.0 34.450931932916035" Properties=species:S:1:pos:R:3:initial_magmoms:R:1 pbc="T T T"
Si       1.40385591      -1.26441351      -1.33245944       0.00000000
Si      -1.38188070       1.26203517      -1.37429323       0.00000000
Si       1.36026387       1.33786512       1.33670380       0.00000000
Si      -1.35275418      -1.37932317       1.32964135       0.00000000
Si      -0.43306965      -2.13804621      -2.55507512       0.00000000
Si      -2.39243085      -0.65278917      -2.50320095       0.00000000
Si       0.08952984       2.54598039      -2.65389010       0.00000000
Si       0.00627165       2.69579952       2.69138410       0.00000000
Si      -2.70971118      -0.01899414       2.69055728       0.00000000
Si       2.71873584      -0.01888011       2.69079843       0.00000000
