10
Lattice="16.28999089631971 0.0 0.0 0.0 16.28999089631971 0.0 0.0 0.0 34.450931932916035" Properties=species:S:1:pos:R:3:initial_magmoms:R:1 pbc="T T T"
Si      -1.34425080      -1.34933328      -1.38554835       0.00000000
Si       1.36836000       1.36666584      -1.38441147       0.00000000
Si       1.40719536      -1.35365013       1.40608112       0.00000000
Si      -1.28249541       1.40831937       1.54474620       0.00000000
Si       2.24573940       0.40557213       2.70488198       0.00000000
Si       0.73722024       2.32510428       2.77657441       0.00000000
Si      -2.67796360       2.72396493      -0.00833713       0.00000000
Si      -2.69303022      -2.71223613       0.01236789       0.00000000
Si       2.73831642      -2.69364924      -0.02656168       0.00000000
Si      -2.70169324       0.00711873      -2.74749781       0.00000000
