10
Lattice="16.28999089631971 0.0 0.0 0.0 16.28999089631971 0.0 0.0 0.0 34.450931932916035" Properties=species:S:1:pos:R:3:initial_magmoms:R:1 pbc="T T T"
Si       2.31210486      -0.10261071       0.35208872       0.00000000
Si      -0.61734213       1.14880338       1.96845845       0.00000000
Si      -0.52204563       1.29865509      -1.93765930       0.00000000
Si      -1.29875283      -2.00883637       0.22138181       0.00000000
Si       0.30656151      -0.62701024       3.23938849       0.00000000
Si      -2.54412170       2.05648218       0.99160173       0.00000000
Si      -1.31554782       3.11222079      -0.70424634       0.00000000
Si       2.18577591      -1.67596896       2.12748404       0.00000000
Si      -1.04356998      -2.83695956      -1.96477220       0.00000000
Si       3.28623057      -0.51460762      -1.77505081       0.00000000
