10
Lattice="16.28999089631971 0.0 0.0 0.0 16.28999089631971 0.0 0.0 0.0 34.450931932916035" Properties=species:S:1:pos:R:3:initial_magmoms:R:1 pbc="T T T"
Si       0.20448837      -2.02518909      -1.16599244       0.00000000
Si       1.40103774      -0.19134234       1.87327047       0.00000000
Si      -2.28455847       0.02347389       0.75254658       0.00000000
Si       0.88312977       2.01689748      -1.00862050       0.00000000
Si       0.87640200       1.96753878       2.70033446       0.00000000
Si       0.26572248       3.33677844       0.87791359       0.00000000
Si      -3.30897141      -0.42660252      -1.31402818       0.00000000
Si      -2.02885434      -2.33693082      -1.90365621       0.00000000
Si       0.81837702      -3.71187198       0.48403586       0.00000000
Si       3.58093296      -0.98300376       1.36770276       0.00000000
