10
Lattice="16.28999089631971 0.0 0.0 0.0 16.28999089631971 0.0 0.0 0.0 34.450931932916035" Properties=species:S:1:pos:R:3:initial_magmoms:R:1 pbc="T T T"
Si      -0.01164735       2.14079922      -0.79426668       0.00000000
Si       1.40304141       0.01762578       1.90539154       0.00000000
Si       1.89869724      -0.89246394      -1.10243044       0.00000000
Si      -1.95563079      -1.19705436      -0.64774678       0.00000000
Si      -0.06836913      -1.26631944       3.18498841       0.00000000
Si       3.35919348      -0.79210125       0.76112486       0.00000000
Si      -1.20660030       3.08395764       1.28601956       0.00000000
Si      -1.38903201      -3.39687225      -0.27168020       0.00000000
Si      -1.78295679      -1.40385591      -2.96615800       0.00000000
Si      -1.60362018       2.39497209      -2.48932238       0.00000000
