10
Lattice="16.28999089631971 0.0 0.0 0.0 16.28999089631971 0.0 0.0 0.0 34.450931932916035" Properties=species:S:1:pos:R:3:initial_magmoms:R:1 pbc="T T T"
Si       1.35764118       1.35635427      -1.35698852       0.00000000
Si      -1.35899325       1.35472527       1.35819430       0.00000000
Si      -1.35738054      -1.35842310      -1.35674736       0.00000000
Si       1.35552348      -1.35648459       1.36294853       0.00000000
Si       0.00009774       2.71412577      -2.71435599       0.00000000
Si      -2.71437338       2.71440270       0.00027561       0.00000000
Si      -2.71444994      -0.00094482      -2.71445935       0.00000000
Si       2.71647153       2.71254564      -0.00013780       0.00000000
Si       2.71554300      -0.00130320      -2.71387368       0.00000000
Si       0.00063531      -2.71546155      -2.71397703       0.00000000
