10
Lattice="16.28999089631971 0.0 0.0 0.0 16.28999089631971 0.0 0.0 0.0 34.450931932916035" Properties=species:S:1:pos:R:3:initial_magmoms:R:1 pbc="T T T"
Si       0.99878877       1.83744684       1.13499830       0.00000000
Si      -1.73411937      -0.95899719       1.31764002       0.00000000
Si       1.88934678      -1.62977703       0.18528204       0.00000000
Si      -1.74599478      -0.28562886      -1.84085561       0.00000000
Si      -0.34168275      -2.26582285       2.66325283       0.00000000
Si       2.38493745       0.49290282       2.64777746       0.00000000
Si       2.56244958      -1.89186196      -1.97576554       0.00000000
Si      -3.43477908      -1.48668567      -0.26989224       0.00000000
Si       0.96897807      -3.59363006       1.20564342       0.00000000
Si       0.77327001       2.99766951      -2.41532522       0.00000000
