10
Lattice="16.28999089631971 0.0 0.0 0.0 16.28999089631971 0.0 0.0 0.0 34.450931932916035" Properties=species:S:1:pos:R:3:initial_magmoms:R:1 pbc="T T T"
Si      -1.07483049       2.05240968       0.41513396       0.00000000
Si       1.80478539      -0.31293090       1.52128510       0.00000000
Si       0.30193515      -0.18902916      -2.40436633       0.00000000
Si      -1.38183183      -1.77110581       1.05371679       0.00000000
Si      -2.50022178      -1.00454891      -1.17601767       0.00000000
Si      -3.11026599       1.29712383      -0.79547246       0.00000000
Si       0.20996181      -3.46533002       0.85844880       0.00000000
Si       2.44263663      -2.52769391       1.12265315       0.00000000
Si       0.69871068      -0.63807278       3.63491986       0.00000000
Si      -1.42322472       2.26642770       2.75538708       0.00000000
