10
Lattice="16.28999089631971 0.0 0.0 0.0 16.28999089631971 0.0 0.0 0.0 34.450931932916035" Properties=species:S:1:pos:R:3:initial_magmoms:R:1 pbc="T T T"
Si       1.35625653       1.35690813       1.35667846       0.00000000
Si      -1.35594702      -1.35689184       1.35753973       0.00000000
Si      -1.35738054       1.35741312      -1.35712632       0.00000000
Si       1.35795069      -1.35755973      -1.35688516       0.00000000
Si       0.00017919       2.71192662       2.71525172       0.00000000
Si      -0.00078192      -2.71427238      -2.71397703       0.00000000
Si      -2.71492398      -0.00188964      -2.71352917       0.00000000
Si      -2.71480995       2.71477737       0.00044786       0.00000000
Si       2.71528236       2.71438641       0.00034451       0.00000000
Si      -2.71526607      -2.71479366       0.00048231       0.00000000
