10
Lattice="16.28999089631971 0.0 0.0 0.0 16.28999089631971 0.0 0.0 0.0 34.450931932916035" Properties=species:S:1:pos:R:3:initial_magmoms:R:1 pbc="T T T"
Si       1.35306369      -1.35483930      -1.35602389       0.00000000
Si      -1.35542574       1.35562122      -1.35933118       0.00000000
Si       1.35614250       1.35791811       1.35736748       0.00000000
Si      -1.35861858      -1.35698958       1.35740193       0.00000000
Si       0.00123804      -2.69231346      -2.73009663       0.00000000
Si       2.71107954       2.71643895      -0.00041341       0.00000000
Si       2.71417464      -2.71366965      -0.00082682       0.00000000
Si       2.71391400       0.00029322       2.71480386       0.00000000
Si      -0.00128691       2.71495656       2.71463160       0.00000000
Si      -0.00122175      -2.71500543       2.71466605       0.00000000
