10
Lattice="16.28999089631971 0.0 0.0 0.0 16.28999089631971 0.0 0.0 0.0 34.450931932916035" Properties=species:S:1:pos:R:3:initial_magmoms:R:1 pbc="T T T"
Si      -1.16748801       1.44702441       1.44728446       0.00000000
Si      -1.36656810      -1.34229600      -1.37672891       0.00000000
Si       1.35073422       1.37026593      -1.37655666       0.00000000
Si       1.31246901      -1.45472958       1.56741493       0.00000000
Si      -2.40593526      -0.00231318       2.83562334       0.00000000
Si       2.29219848       0.37761849       2.92343882       0.00000000
Si       0.65425527       2.22304743       2.92822750       0.00000000
Si       2.70910845      -2.70208746       0.01808675       0.00000000
Si      -2.71914309      -2.70909216       0.00306613       0.00000000
Si       2.70485676       2.72779308      -0.00575331       0.00000000
