10
Lattice="16.28999089631971 0.0 0.0 0.0 16.28999089631971 0.0 0.0 0.0 34.450931932916035" Properties=species:S:1:pos:R:3:initial_magmoms:R:1 pbc="T T T"
Si       1.65605769       1.08717831      -1.18852336       0.00000000
Si      -2.07648630       1.03773816      -0.30179033       0.00000000
Si       0.00379557      -2.30708754      -0.55386794       0.00000000
Si       0.06750576      -0.87456123       2.30852379       0.00000000
Si      -2.95927398       0.47324079       1.83454760       0.00000000
Si       3.45769911       0.88391169       0.23498994       0.00000000
Si      -2.13076458      -1.65187116       2.38562502       0.00000000
Si      -3.21848046      -0.33710526      -1.82441902       0.00000000
Si      -1.87457175      -3.20886936       0.57650222       0.00000000
Si       1.43593092       3.39827319      -0.75082403       0.00000000
