10
Lattice="16.28999089631971 0.0 0.0 0.0 16.28999089631971 0.0 0.0 0.0 34.450931932916035" Properties=species:S:1:pos:R:3:initial_magmoms:R:1 pbc="T T T"
Si       1.45116207       1.17843489      -1.37802565       0.00000000
Si       1.35430173      -1.36446669       1.31251578       0.00000000
Si      -1.38942297       1.36071999       1.31105851       0.00000000
Si      -1.03050540      -1.65868038      -1.41728943       0.00000000
Si      -2.04858153       0.38874456      -2.45615787       0.00000000
Si      -0.31578165       2.01246660      -2.57732186       0.00000000
Si      -2.69040753      -2.61192231       0.00953947       0.00000000
Si       2.69689095      -0.01114236       2.67846155       0.00000000
Si      -0.01798416       2.70355356       2.67363841       0.00000000
Si      -0.01440036      -2.72712519       2.67384512       0.00000000
