10
Lattice="16.28999089631971 0.0 0.0 0.0 16.28999089631971 0.0 0.0 0.0 34.450931932916035" Properties=species:S:1:pos:R:3:initial_magmoms:R:1 pbc="T T T"
Si      -1.35430173       1.36446669      -1.31251578       0.00000000
Si       1.34258922       1.35332433       1.36594576       0.00000000
Si      -1.36870209      -1.36265850       1.36132934       0.00000000
Si       1.37671677      -1.31406543      -1.48788835       0.00000000
Si      -0.53291106      -2.17715850      -2.83898028       0.00000000
Si      -2.38480713      -0.29421369      -2.72980522       0.00000000
Si       0.09686034       2.54290158      -2.69054143       0.00000000
Si       2.70267390       2.68978851      -0.00613916       0.00000000
Si       2.69780319      -0.00184077       2.72024711       0.00000000
Si       2.69604387      -2.72549619      -0.01642621       0.00000000
