10
Lattice="16.28999089631971 0.0 0.0 0.0 16.28999089631971 0.0 0.0 0.0 34.450931932916035" Properties=species:S:1:pos:R:3:initial_magmoms:R:1 pbc="T T T"
Si       0.49091544      -1.55370762      -1.68093081       0.00000000
Si      -1.54665405      -1.30091940       1.18518162       0.00000000
Si       1.86826752      -0.10622709       1.60620670       0.00000000
Si       1.33488405      -3.17237976      -0.15816432       0.00000000
Si       1.72936269      -0.10437003      -3.06926969       0.00000000
Si      -1.16362728      -3.43658727       0.13229165       0.00000000
Si       0.84779676       0.38548656       3.68883560       0.00000000
Si      -3.02547654       1.57582944      -1.80106128       0.00000000
Si      -0.92952369      -1.19441538       3.57352826       0.00000000
Si       3.55110597       0.67165299      -1.58832665       0.00000000
