10
Lattice="16.28999089631971 0.0 0.0 0.0 16.28999089631971 0.0 0.0 0.0 34.450931932916035" Properties=species:S:1:pos:R:3:initial_magmoms:R:1 pbc="T T T"
Si      -1.39764942       0.52841502      -1.83327292       0.00000000
Si      -0.69498027       1.60888185       1.59842078       0.00000000
Si       2.35138005       0.31527666      -0.04506184       0.00000000
Si       0.09335799      -2.20661082       0.88580286       0.00000000
Si       1.04080068       1.71229077       3.15846320       0.00000000
Si      -2.25002367       2.70187569      -1.31175442       0.00000000
Si      -0.38095794      -1.98387765       3.21706427       0.00000000
Si       2.34652563      -2.81947320       0.99184288       0.00000000
Si       2.83654512       2.56886784       0.03448540       0.00000000
Si       3.02492268       0.43018632      -2.30697350       0.00000000
