10
Lattice="16.28999089631971 0.0 0.0 0.0 16.28999089631971 0.0 0.0 0.0 34.450931932916035" Properties=species:S:1:pos:R:3:initial_magmoms:R:1 pbc="T T T"
Si       0.93823884      -1.28300040      -1.67969058       0.00000000
Si       0.64255905       2.22720138       0.07427625       0.00000000
Si      -2.32645635      -0.13453911      -0.07059000       0.00000000
Si       1.13909454      -0.88518231       1.83606344       0.00000000
Si       3.02041035       1.90250910       0.54087993       0.00000000
Si      -0.79754211      -1.38640932      -3.23973300       0.00000000
Si      -2.79526626      -0.87146613       2.13017121       0.00000000
Si       1.35922131      -3.19627719       1.39836411       0.00000000
Si      -2.74988232      -1.75277142      -1.86713820       0.00000000
Si      -0.59994441       3.17120688       1.95044060       0.00000000
