10
Lattice="16.28999089631971 0.0 0.0 0.0 16.28999089631971 0.0 0.0 0.0 34.450931932916035" Properties=species:S:1:pos:R:3:initial_magmoms:R:1 pbc="T T T"
Si       1.76694372      -0.83403171       1.19929622       0.00000000
Si       0.86859909      -0.29310597      -2.16004019       0.00000000
Si      -1.73279988      -1.62372204       0.12116400       0.00000000
Si      -1.04659992       1.97302851       0.83323071       0.00000000
Si       0.62498214       1.99156653      -2.41187664       0.00000000
Si       0.31578165      -2.01246660       2.57732186       0.00000000
Si      -1.38098475       2.91543759      -1.41135212       0.00000000
Si      -2.45928501       0.74678247       2.50615309       0.00000000
Si       3.19122729      -0.72422082      -2.01441602       0.00000000
Si      -0.71472375      -3.67114698       1.16003243       0.00000000
