10
Lattice="16.28999089631971 0.0 0.0 0.0 16.28999089631971 0.0 0.0 0.0 34.450931932916035" Properties=species:S:1:pos:R:3:initial_magmoms:R:1 pbc="T T T"
Si       1.35902583       1.34664543       1.37368000       0.00000000
Si      -1.35586557      -1.36971207       1.37395561       0.00000000
Si       1.38113136      -1.37883447      -1.37939197       0.00000000
Si      -1.41157737       1.35513252      -1.43873718       0.00000000
Si      -2.72223819       2.68293972       0.01887223       0.00000000
Si       2.72137482       2.69726562      -0.00311092       0.00000000
Si       0.00187335       2.70365261       2.73328679       0.00000000
Si      -2.72730438      -2.71254564       0.01137570       0.00000000
Si      -2.71419093      -0.01027899       2.73283893       0.00000000
Si       2.71720458      -0.01005093       2.73325234       0.00000000
