10
Lattice="16.28999089631971 0.0 0.0 0.0 16.28999089631971 0.0 0.0 0.0 34.450931932916035" Properties=species:S:1:pos:R:3:initial_magmoms:R:1 pbc="T T T"
Si      -1.22675103       1.13880132      -1.68175763       0.00000000
Si       0.89875188      -1.64963943      -1.48545611       0.00000000
Si       1.93297140       1.11353553       0.91208893       0.00000000
Si      -1.02447810      -0.24865056       2.18636072       0.00000000
Si       2.60416827      -0.07972326      -2.27458960       0.00000000
Si      -0.24917184      -2.49126228       2.71704317       0.00000000
Si      -0.17901081       1.83334176       3.27662997       0.00000000
Si      -3.49707204       0.19950363      -1.42678614       0.00000000
Si       3.36593754       1.71491346      -0.81483390       0.00000000
Si       2.71984356      -0.12952179       2.86190942       0.00000000
