10
Lattice="16.28999089631971 0.0 0.0 0.0 16.28999089631971 0.0 0.0 0.0 34.450931932916035" Properties=species:S:1:pos:R:3:initial_magmoms:R:1 pbc="T T T"
Si      -1.80865427      -0.89161686       1.15681643       0.00000000
Si      -0.31011273      -0.21572847      -2.32776089       0.00000000
Si       1.01055015       1.91482434       1.12890772       0.00000000
Si       1.95936120      -1.48525704      -0.05187418       0.00000000
Si      -0.32482260      -2.09561076       2.48566197       0.00000000
Si       1.88222805      -1.27886274      -2.46449672       0.00000000
Si      -0.87671151       1.98408942      -2.70382748       0.00000000
Si       2.39243085       0.65278917       2.50320095       0.00000000
Si       1.06924302      -3.35585403       1.06361627       0.00000000
Si      -2.92499086      -2.42406603      -0.20576940       0.00000000
