10
Lattice="16.28999089631971 0.0 0.0 0.0 16.28999089631971 0.0 0.0 0.0 34.450931932916035" Properties=species:S:1:pos:R:3:initial_magmoms:R:1 pbc="T T T"
Si       1.35676152       1.35638685       1.35805650       0.00000000
Si      -1.35826020      -1.35820644       1.35826320       0.00000000
Si      -1.36111095       1.35883035      -1.35519707       0.00000000
Si       1.35814617      -1.35961390      -1.35836655       0.00000000
Si       2.71785618      -0.01071882      -2.70961554       0.00000000
Si      -2.71417464       2.71366965       0.00082682       0.00000000
Si       2.71516416       2.71337643       0.00068902       0.00000000
Si      -0.00026064       2.71396287       2.71563068       0.00000000
Si       2.71428716      -0.00135207       2.71594074       0.00000000
Si      -2.71539639      -0.00133578       2.71549287       0.00000000
