10
Lattice="16.28999089631971 0.0 0.0 0.0 16.28999089631971 0.0 0.0 0.0 34.450931932916035" Properties=species:S:1:pos:R:3:initial_magmoms:R:1 pbc="T T T"
Si      -0.86819184      -2.00511818       0.98777767       0.00000000
Si       1.33859558      -1.31726967      -1.55914670       0.00000000
Si      -1.36260963       1.39097052      -1.52855425       0.00000000
Si       1.83027014       0.92747115       1.46971203       0.00000000
Si       2.65454414      -2.68088507      -0.17222030       0.00000000
Si      -2.75924907       2.63832840       0.02077392       0.00000000
Si       3.61806506      -0.85025655       1.04510406       0.00000000
Si      -2.83229343      -2.71349765      -0.23037351       0.00000000
Si       2.82210308       2.73271266       0.09043375       0.00000000
Si       0.94167996      -3.61325951       1.31016967       0.00000000
