10
Lattice="16.28999089631971 0.0 0.0 0.0 16.28999089631971 0.0 0.0 0.0 34.450931932916035" Properties=species:S:1:pos:R:3:initial_magmoms:R:1 pbc="T T T"
Si      -0.86139891       0.10285506       2.20696238       0.00000000
Si       0.63957798       1.99896545      -1.12423789       0.00000000
Si      -1.98208575      -0.80654233      -1.09536799       0.00000000
Si       2.22062022      -0.68056199       0.67995842       0.00000000
Si      -0.05968656      -2.06189439       2.57066108       0.00000000
Si      -1.40555007       3.10487726      -0.74131557       0.00000000
Si       0.04722471       2.20099403       2.72214191       0.00000000
Si      -2.75595849       1.39340099      -1.74628426       0.00000000
Si       2.87551080       2.38507103      -0.34730004       0.00000000
Si       2.13832314      -2.71794156       1.74972936       0.00000000
