10
Lattice="16.28999089631971 0.0 0.0 0.0 16.28999089631971 0.0 0.0 0.0 34.450931932916035" Properties=species:S:1:pos:R:3:initial_magmoms:R:1 pbc="T T T"
Si      -1.35780408      -1.35689184       1.35691961       0.00000000
Si       1.35702216      -1.35757602      -1.35757418       0.00000000
Si       1.35672894       1.35913986       1.35643730       0.00000000
Si      -1.35777150       1.35762489      -1.35743638       0.00000000
Si      -2.71391400      -0.00029322      -2.71480386       0.00000000
Si       2.71453874       2.71500543      -0.00010335       0.00000000
Si       0.00026064      -2.71396287      -2.71563068       0.00000000
Si       2.71454780      -2.71531494       0.00031006       0.00000000
Si      -2.71520091       2.71466334      -0.00017225       0.00000000
Si       2.71542480      -0.00058644      -2.71494166       0.00000000
