10
Lattice="16.28999089631971 0.0 0.0 0.0 16.28999089631971 0.0 0.0 0.0 34.450931932916035" Properties=species:S:1:pos:R:3:initial_magmoms:R:1 pbc="T T T"
Si       1.35389448      -1.35485559      -1.36060587       0.00000000
Si      -1.36085031       1.35742941      -1.35909002       0.00000000
Si       1.35412254       1.35752715       1.37080335       0.00000000
Si      -1.35073422      -1.37026593       1.37655666       0.00000000
Si      -2.51822223       0.07675848       2.82384112       0.00000000
Si       2.70988726       2.71327869       0.00292833       0.00000000
Si       2.71365245      -2.71406061       0.00509874       0.00000000
Si       2.71170428       0.00100998      -2.71714652       0.00000000
Si      -2.71730232      -2.71256193      -0.00017225       0.00000000
Si      -0.00283446      -2.71399545      -2.71704317       0.00000000
