10
Lattice="16.28999089631971 0.0 0.0 0.0 16.28999089631971 0.0 0.0 0.0 34.450931932916035" Properties=species:S:1:pos:R:3:initial_magmoms:R:1 pbc="T T T"
Si       1.35527822       1.35829278      -1.38954467       0.00000000
Si      -1.36078515      -1.35814617      -1.39457450       0.00000000
Si      -1.39663944       1.24735788       1.54932818       0.00000000
Si       1.36260963      -1.39097052       1.52855425       0.00000000
Si       2.70120521      -2.70824019      -0.03059244       0.00000000
Si      -2.70910845       2.70208746      -0.01808675       0.00000000
Si      -2.73212622      -2.68989114      -0.04109998       0.00000000
Si       2.71978559       2.71150308       0.00489204       0.00000000
Si       2.71204132      -0.00021177      -2.75497366       0.00000000
Si      -0.00415395      -2.71535404      -2.75535262       0.00000000
