10
Lattice="16.28999089631971 0.0 0.0 0.0 16.28999089631971 0.0 0.0 0.0 34.450931932916035" Properties=species:S:1:pos:R:3:initial_magmoms:R:1 pbc="T T T"
Si      -1.63794321       1.84542894       0.00478868       0.00000000
Si      -0.97972947      -1.83234807      -1.35602389       0.00000000
Si       1.74143358       1.01071305      -1.45097071       0.00000000
Si       1.17133245      -0.08830809       2.20251821       0.00000000
Si      -1.48261806       2.46045789       2.38386802       0.00000000
Si      -2.29219848      -0.37761849      -2.92343882       0.00000000
Si       0.41265828       2.35017459      -2.92919212       0.00000000
Si       2.40135844       2.19522411       2.05503369       0.00000000
Si       2.61598896       2.84420142      -0.21945256       0.00000000
Si      -3.45968649       1.06940592      -1.47615436       0.00000000
