10
Lattice="16.28999089631971 0.0 0.0 0.0 16.28999089631971 0.0 0.0 0.0 34.450931932916035" Properties=species:S:1:pos:R:3:initial_magmoms:R:1 pbc="T T T"
Si       0.38185389       2.26326744       0.66262960       0.00000000
Si       1.00510929      -1.00929582       1.92525696       0.00000000
Si      -2.30684319      -0.43473123      -0.67902825       0.00000000
Si       1.47186666       0.71392554      -1.94310255       0.00000000
Si      -0.29168874       2.14835778       2.92454125       0.00000000
Si      -3.02024745       1.86978249      -0.94629873       0.00000000
Si       3.06652964       0.20422773       2.25877661       0.00000000
Si      -1.18208385       3.26269152      -1.76175274       0.00000000
Si       3.63426057      -0.18318105      -1.53795936       0.00000000
Si       1.49767002      -3.33034389       1.80261157       0.00000000
