10
Lattice="16.28999089631971 0.0 0.0 0.0 16.28999089631971 0.0 0.0 0.0 34.450931932916035" Properties=species:S:1:pos:R:3:initial_magmoms:R:1 pbc="T T T"
Si       1.80164142      -0.20326662       1.42351330       0.00000000
Si      -1.65605769      -1.08717831       1.18852336       0.00000000
Si      -0.11785815      -0.34342578      -2.31899688       0.00000000
Si      -0.22012677       2.31109488       0.43769933       0.00000000
Si       3.29959328       1.33978734       0.46505339       0.00000000
Si      -0.42098247       1.91327679      -3.07805468       0.00000000
Si      -1.35922131       3.19627719      -1.39836411       0.00000000
Si       0.96829389       1.03151538       3.48209544       0.00000000
Si       1.93372074       3.23335323       0.59765510       0.00000000
Si      -1.65226212      -3.39426585       0.63465542       0.00000000
