10
Lattice="16.28999089631971 0.0 0.0 0.0 16.28999089631971 0.0 0.0 0.0 34.450931932916035" Properties=species:S:1:pos:R:3:initial_magmoms:R:1 pbc="T T T"
Si      -0.93675645      -1.89771984       1.08898699       0.00000000
Si       0.18640647      -1.08162342      -2.12078544       0.00000000
Si       1.85270798       1.12298373       1.08839443       0.00000000
Si      -1.85671791       1.63196478      -0.13405933       0.00000000
Si       0.33852616       2.27998098       2.52780685       0.00000000
Si      -2.39023170      -0.46964070       2.51924923       0.00000000
Si      -0.65534670       0.75497634      -3.40780407       0.00000000
Si      -2.60926704       1.38131055      -2.32456281       0.00000000
Si      -0.94161087       3.63887649       1.07521350       0.00000000
Si       3.03454097      -0.43917840       2.51329611       0.00000000
