10
Lattice="16.28999089631971 0.0 0.0 0.0 16.28999089631971 0.0 0.0 0.0 34.450931932916035" Properties=species:S:1:pos:R:3:initial_magmoms:R:1 pbc="T T T"
Si      -1.36008468      -1.33646418       1.37208492       0.00000000
Si      -1.33796286       1.36910934      -1.38608579       0.00000000
Si       1.35508365       1.37544615       1.36381669       0.00000000
Si       1.45347525      -1.42807914      -1.43026224       0.00000000
Si       0.53351379       2.10160548      -2.65330856       0.00000000
Si       2.39023170       0.46964070      -2.51924923       0.00000000
Si      -2.60581356      -0.14688693      -2.68440227       0.00000000
Si      -2.70267390      -2.68978851       0.00613916       0.00000000
Si      -0.00487071      -2.69162928       2.72638627       0.00000000
Si       2.72590673      -2.70695817       0.01999878       0.00000000
