10
Lattice="16.28999089631971 0.0 0.0 0.0 16.28999089631971 0.0 0.0 0.0 34.450931932916035" Properties=species:S:1:pos:R:3:initial_magmoms:R:1 pbc="T T T"
Si       1.35635427      -1.35707103      -1.35774644       0.00000000
Si       1.35606105       1.35894438       1.35667846       0.00000000
Si      -1.35804843       1.35770634      -1.35764308       0.00000000
Si      -1.35827649      -1.35785295       1.35778089       0.00000000
Si      -2.71391400      -0.00035838      -2.71425264       0.00000000
Si      -0.00309510      -2.71313208      -2.71538952       0.00000000
Si       2.71427810      -2.71427238      -0.00027561       0.00000000
Si       0.00228060       2.71311579       2.71590629       0.00000000
Si       2.71365754       0.00066789      -2.71556178       0.00000000
Si       2.71451058       2.71536381      -0.00027561       0.00000000
