10
Lattice="16.28999089631971 0.0 0.0 0.0 16.28999089631971 0.0 0.0 0.0 34.450931932916035" Properties=species:S:1:pos:R:3:initial_magmoms:R:1 pbc="T T T"
Si       1.35576472       1.35575154      -1.36787502       0.00000000
Si      -1.35412254      -1.35752715      -1.37080335       0.00000000
Si      -1.30381902       1.31145903       1.51484277       0.00000000
Si       1.32877530      -1.33946154       1.47822141       0.00000000
Si       2.20333068       0.49402683       2.70973957       0.00000000
Si      -2.05060149      -0.50474565       2.93398081       0.00000000
Si       0.35849403       2.33870643       2.81812226       0.00000000
Si      -0.41265828      -2.35017459       2.92919212       0.00000000
Si      -2.71050939       2.71564074       0.01929253       0.00000000
Si      -2.70485676      -2.72779308       0.00575331       0.00000000
