10
Lattice="16.28999089631971 0.0 0.0 0.0 16.28999089631971 0.0 0.0 0.0 34.450931932916035" Properties=species:S:1:pos:R:3:initial_magmoms:R:1 pbc="T T T"
Si      -1.35378045       1.35417141       1.35922783       0.00000000
Si      -1.35606105      -1.35894438      -1.35667846       0.00000000
Si       1.35844953       1.35641943      -1.35695407       0.00000000
Si       1.35640003      -1.36094805       1.36312079       0.00000000
Si      -2.71373481       2.71414206       0.00062012       0.00000000
Si       0.00148239       2.71446786      -2.71390813       0.00000000
Si      -2.71410948      -0.00123804      -2.71432154       0.00000000
Si       0.00029322      -2.71601541      -2.71442489       0.00000000
Si       2.71608939      -0.00063531      -2.71445935       0.00000000
Si       2.71616595       2.71471221       0.00027561       0.00000000
