10
Lattice="16.28999089631971 0.0 0.0 0.0 16.28999089631971 0.0 0.0 0.0 34.450931932916035" Properties=species:S:1:pos:R:3:initial_magmoms:R:1 pbc="T T T"
Si      -0.80171235       2.16474945      -0.36369869       0.00000000
Si      -1.90664676      -1.01401992      -1.02160851       0.00000000
Si      -1.20182733      -0.91075761       1.89518128       0.00000000
Si       2.19800970      -0.65604717      -0.82093172       0.00000000
Si       2.28030678       1.38133240      -1.89070265       0.00000000
Si       0.05968656       2.06189439      -2.57066108       0.00000000
Si      -1.94512374       1.27990597       2.44002307       0.00000000
Si       0.37304100      -2.67398721       2.22305098       0.00000000
Si      -0.66414330      -1.95802542      -2.89777286       0.00000000
Si      -3.15569880      -1.84622715       0.77128790       0.00000000
