10
Lattice="16.28999089631971 0.0 0.0 0.0 16.28999089631971 0.0 0.0 0.0 34.450931932916035" Properties=species:S:1:pos:R:3:initial_magmoms:R:1 pbc="T T T"
Si       0.92646117      -0.24081507       2.10164583       0.00000000
Si      -1.40785022       1.87880715      -0.11234455       0.00000000
Si      -1.41344583      -1.76863788      -0.75881665       0.00000000
Si       1.53248175       1.68976170      -0.82492803       0.00000000
Si       2.82079269      -1.36407573       1.21270793       0.00000000
Si      -1.69364100       2.05866504       2.17967723       0.00000000
Si       0.58860657       2.02711131       2.86535451       0.00000000
Si       0.25236468       3.60009000      -0.23530000       0.00000000
Si      -2.47760216       1.48046778      -2.19762618       0.00000000
Si       1.36811565       1.37495745      -3.10912944       0.00000000
