10
Lattice="16.28999089631971 0.0 0.0 0.0 16.28999089631971 0.0 0.0 0.0 34.450931932916035" Properties=species:S:1:pos:R:3:initial_magmoms:R:1 pbc="T T T"
Si       1.36236528       1.34829072       1.37324937       0.00000000
Si      -1.35489469      -1.36573731       1.37297376       0.00000000
Si       1.33209846      -1.44125775      -1.33271782       0.00000000
Si      -1.18183298       1.56216213      -1.42490168       0.00000000
Si      -2.69601481       2.71915938       0.01451074       0.00000000
Si       2.71397916      -2.70329292       0.04157541       0.00000000
Si       2.80350900      -0.15731253      -2.61231469       0.00000000
Si       2.69878059       2.73613356       0.00298345       0.00000000
Si      -2.69886593      -2.73742047       0.02595190       0.00000000
Si       0.00179190       2.70795186       2.73278725       0.00000000
