10
Lattice="16.28999089631971 0.0 0.0 0.0 16.28999089631971 0.0 0.0 0.0 34.450931932916035" Properties=species:S:1:pos:R:3:initial_magmoms:R:1 pbc="T T T"
Si      -1.35679828       1.35327546      -1.36239732       0.00000000
Si      -1.35730327      -1.35773892       1.35781534       0.00000000
Si       1.35849290       1.35764118       1.35778089       0.00000000
Si       1.35799605      -1.35744570      -1.35919338       0.00000000
Si      -2.71365754      -0.00066789       2.71556178       0.00000000
Si      -2.71377157       2.71572219       0.00034451       0.00000000
Si       0.00085304       2.71469592       2.71528617       0.00000000
Si       0.00062057      -2.71494027       2.71528617       0.00000000
Si      -2.71675264      -2.71379997       0.00017225       0.00000000
Si       2.71468264       2.71624347       0.00062012       0.00000000
