10
Lattice="16.28999089631971 0.0 0.0 0.0 16.28999089631971 0.0 0.0 0.0 34.450931932916035" Properties=species:S:1:pos:R:3:initial_magmoms:R:1 pbc="T T T"
Si      -0.21463052      -0.64897731       2.27448625       0.00000000
Si      -0.87455538      -1.83348837      -1.23151815       0.00000000
Si       1.93124140       0.90815121      -1.14862916       0.00000000
Si      -1.84483665       1.84467960       0.10838269       0.00000000
Si      -2.20333068      -0.49402683      -2.70973957       0.00000000
Si       0.53577321       2.22379677      -2.70171249       0.00000000
Si      -0.43310549       1.54196253       3.29606030       0.00000000
Si      -3.50714970       0.81743220      -1.19489679       0.00000000
Si      -0.78452037       3.55167612      -1.24044095       0.00000000
Si      -2.61598896      -2.84420142       0.21945256       0.00000000
