10
Lattice="16.28999089631971 0.0 0.0 0.0 16.28999089631971 0.0 0.0 0.0 34.450931932916035" Properties=species:S:1:pos:R:3:initial_magmoms:R:1 pbc="T T T"
Si       0.21463052       0.64897731      -2.27448625       0.00000000
Si      -0.21847496       2.19093984       1.02157406       0.00000000
Si      -0.11348266       0.45740691       2.53262723       0.00000000
Si      -1.23002599      -2.28353220       0.14748452       0.00000000
Si       0.93236792      -3.18063879       0.55262771       0.00000000
Si       2.29958437       0.21779730       2.71845566       0.00000000
Si      -2.32003876      -0.73419030       2.75321667       0.00000000
Si      -1.63020613       2.49365691      -2.16610356       0.00000000
Si      -0.65992486      -1.18451106      -3.50600440       0.00000000
Si      -2.40135844      -2.19522411      -2.05503369       0.00000000
