10
Lattice="16.28999089631971 0.0 0.0 0.0 16.28999089631971 0.0 0.0 0.0 34.450931932916035" Properties=species:S:1:pos:R:3:initial_magmoms:R:1 pbc="T T T"
Si       1.35738380       1.35730624      -1.35719522       0.00000000
Si       1.35538013      -1.35967743       1.35791869       0.00000000
Si      -1.35771642      -1.35829278      -1.35722967       0.00000000
Si      -1.35873081       1.36099692       1.35840101       0.00000000
Si      -0.00051639       2.71441477      -2.71425264       0.00000000
Si       2.71437338      -2.71440270      -0.00027561       0.00000000
Si      -2.71543290       2.71334452      -0.00079237       0.00000000
Si      -2.71468356      -0.00024435      -2.71418374       0.00000000
Si       2.71447112      -0.00027693      -2.71463160       0.00000000
Si      -0.00007656      -2.71534752      -2.71473495       0.00000000
