10
Lattice="16.28999089631971 0.0 0.0 0.0 16.28999089631971 0.0 0.0 0.0 34.450931932916035" Properties=species:S:1:pos:R:3:initial_magmoms:R:1 pbc="T T T"
Si      -1.33180687      -1.35391077       1.38082857       0.00000000
Si       1.35899325      -1.35472527      -1.35819430       0.00000000
Si      -1.35538013       1.35967743      -1.35791869       0.00000000
Si       1.35104373       1.35754344       1.36963202       0.00000000
Si       2.71451673      -2.71120986       0.00475423       0.00000000
Si       0.00161271      -2.71314837      -2.71494166       0.00000000
Si      -2.71309655       0.00138465      -2.71514836       0.00000000
Si      -2.71514605      -2.71598283       0.00492649       0.00000000
Si       2.71663443       0.00162900      -2.71518282       0.00000000
Si       2.71549413       2.71644415       0.00337619       0.00000000
