10
Lattice="16.28999089631971 0.0 0.0 0.0 16.28999089631971 0.0 0.0 0.0 34.450931932916035" Properties=species:S:1:pos:R:3:initial_magmoms:R:1 pbc="T T T"
Si       1.32029359      -1.32787935      -1.46127155       0.00000000
Si      -1.06031628      -1.70699652       1.34882364       0.00000000
Si       0.88973097       1.81017738       1.39326537       0.00000000
Si      -1.42402311       1.36950030      -1.46354531       0.00000000
Si      -0.92014083       3.41831871       1.07087337       0.00000000
Si       2.60259514       2.74255182      -0.08912461       0.00000000
Si       2.71576177      -2.64352491       0.09181178       0.00000000
Si       0.78452037      -3.55167612       1.24044095       0.00000000
Si      -2.72262933      -2.73424392       0.04554416       0.00000000
Si       2.65210045       0.02603142      -2.84210012       0.00000000
