10
Lattice="16.28999089631971 0.0 0.0 0.0 16.28999089631971 0.0 0.0 0.0 34.450931932916035" Properties=species:S:1:pos:R:3:initial_magmoms:R:1 pbc="T T T"
Si      -1.80987180       1.60814133      -0.32239200       0.00000000
Si       1.71286418       0.93237444      -1.48238998       0.00000000
Si      -0.88973097      -1.81017738      -1.39326537       0.00000000
Si       0.29699765      -0.27901512       2.65951008       0.00000000
Si       0.39691562       2.29598983      -2.86931637       0.00000000
Si      -2.31375408      -0.44067708      -2.85681068       0.00000000
Si      -3.34401513       0.96991688       1.44356376       0.00000000
Si      -1.99793985      -0.24620706       3.23439310       0.00000000
Si       2.67638510       2.76300296      -0.26506562       0.00000000
Si      -0.94167996       3.61325951      -1.31016967       0.00000000
