10
Lattice="16.28999089631971 0.0 0.0 0.0 16.28999089631971 0.0 0.0 0.0 34.450931932916035" Properties=species:S:1:pos:R:3:initial_magmoms:R:1 pbc="T T T"
Si      -2.29493750       0.03280806       0.57488302       0.00000000
Si       0.82403454      -2.00323017       1.20034004       0.00000000
Si       0.97145904       1.69352536       1.71352141       0.00000000
Si      -0.29699765       0.27901512      -2.65951008       0.00000000
Si      -0.83531373      -3.54087585       0.48372581       0.00000000
Si      -2.74379216      -2.28884274       0.97537533       0.00000000
Si       0.25929445      -1.46662128       3.45098623       0.00000000
Si       3.05315814       2.29713991       0.77583542       0.00000000
Si       3.19769931      -1.85771160       1.34534409       0.00000000
Si       1.51717404       0.43842906       3.68277223       0.00000000
