10
Lattice="16.290000149 0.0 0.0 0.0 16.290000149 0.0 0.0 0.0 29.1751946751" Properties=species:S:1:pos:R:3:initial_magmoms:R:1 pbc="T T T"
Si      -1.34333857      -1.37888335       1.31308799       0.00000000
Si       1.30393306      -1.34591239      -1.43153928       0.00000000
Si       1.22978098       1.43292869       1.42663784       0.00000000
Si      -1.40019067       1.34079082      -1.36099366       0.00000000
Si       0.20193084      -2.70321149       2.49844697       0.00000000
Si       2.64231947       2.71702541       0.04501733       0.00000000
Si      -2.70791930      -0.00913869       2.65692663       0.00000000
Si      -0.29116746       2.74988235       2.62366691       0.00000000
Si       2.65843028       0.00959481      -2.76545835       0.00000000
Si      -0.06537177       2.70480791      -2.73056482       0.00000000
