10
Lattice="16.290000149 0.0 0.0 0.0 16.290000149 0.0 0.0 0.0 29.1751946751" Properties=species:S:1:pos:R:3:initial_magmoms:R:1 pbc="T T T"
Si      -0.68787784       2.05000529       0.76555711       0.00000000
Si       2.05672655      -0.61046938       0.89244003       0.00000000
Si      -1.24343200      -1.78656667       0.84260880       0.00000000
Si      -0.63900784      -0.67654814      -2.14653577       0.00000000
Si      -0.68339809      -2.82215456      -1.16700779       0.00000000
H        0.68848057       2.31214398      -2.13889187       0.00000000
Si      -1.30305340       1.53455711       2.94736569       0.00000000
Si      -3.53080866       0.78612934      -0.77276338       0.00000000
Si       1.53243289      -1.86721846       2.82258338       0.00000000
Si       1.07799076       3.53435011       0.43427277       0.00000000
