10
Lattice="16.290000149 0.0 0.0 0.0 16.290000149 0.0 0.0 0.0 29.1751946751" Properties=species:S:1:pos:R:3:initial_magmoms:R:1 pbc="T T T"
Si       1.14810292       0.12737151      -2.05892266       0.00000000
Si       1.55914849       0.78698620       1.59115677       0.00000000
Si      -0.91129519      -1.83902699       1.17039211       0.00000000
Si      -1.93142387       1.49314141      -0.31555891       0.00000000
Si      -1.94478167      -0.35188029       2.64201810       0.00000000
H       -2.82685260       0.49547664       1.74753581       0.00000000
Si      -0.05475069       0.96461236       3.26992664       0.00000000
H        1.88283080      -2.87700951      -0.11626315       0.00000000
Si       2.39805092       2.71211235       0.57066681       0.00000000
Si       2.67590945       1.97262128      -1.63541554       0.00000000
