10
Lattice="16.290000149 0.0 0.0 0.0 16.290000149 0.0 0.0 0.0 29.1751946751" Properties=species:S:1:pos:R:3:initial_magmoms:R:1 pbc="T T T"
Si       1.03180861       1.10956078      -0.21367913       0.00000000
H       -0.49055706       1.51547500       1.84477673       0.00000000
Si      -2.21535857      -0.77771719      -1.12260314       0.00000000
Si      -0.95723299       0.23180670       2.49237853       0.00000000
Si       1.05223627      -1.13806828       2.36243221       0.00000000
Si      -0.53988318      -2.45858456      -1.38062856       0.00000000
Si      -0.19057671      -2.71039538       0.97357625       0.00000000
Si       2.19599302       0.94281634       1.80422321       0.00000000
Si       2.52219701       0.03780909      -1.63897491       0.00000000
Si      -0.22748985       2.75509515      -1.36536994       0.00000000
