10
Lattice="16.290000149 0.0 0.0 0.0 16.290000149 0.0 0.0 0.0 29.1751946751" Properties=species:S:1:pos:R:3:initial_magmoms:R:1 pbc="T T T"
Si       0.42842700      -0.24029379       2.28742979       0.00000000
Si      -1.72445942       1.61850925       0.10363029       0.00000000
Si      -0.05597244      -2.29257317      -0.66283125       0.00000000
Si       1.86336425       0.90973135      -1.27238859       0.00000000
H       -0.92600506       0.16892730      -2.54089688       0.00000000
Si       2.14791797      -2.66732462       0.14424216       0.00000000
Si      -0.34845939       3.38004471      -0.80263878       0.00000000
Si       2.06474123      -1.97200226       2.37379303       0.00000000
Si      -3.76544982       0.57782260      -0.63126369       0.00000000
Si       3.45481581       1.72043579       0.29218957       0.00000000
