10
Lattice="16.290000149 0.0 0.0 0.0 16.290000149 0.0 0.0 0.0 29.1751946751" Properties=species:S:1:pos:R:3:initial_magmoms:R:1 pbc="T T T"
Si       1.25543773       1.37220445      -1.42499528       0.00000000
Si       1.37551132      -1.26311032       1.41815078       0.00000000
Si      -0.81046009      -1.85850983      -1.18254241       0.00000000
Si      -1.42460938       1.37518552       1.29579293       0.00000000
Si      -2.68822469      -2.65645919       0.01399534       0.00000000
Si      -0.05341491      -2.65178396       2.69985209       0.00000000
Si       2.66675447      -2.70738173       0.08836291       0.00000000
Si       2.64446975       2.75077830      -0.08167304       0.00000000
Si      -0.08348625       2.74753659       2.66026135       0.00000000
Si       0.82585414      -3.59021829      -1.09617917       0.00000000
