10
Lattice="16.290000149 0.0 0.0 0.0 16.290000149 0.0 0.0 0.0 29.1751946751" Properties=species:S:1:pos:R:3:initial_magmoms:R:1 pbc="T T T"
H       -0.15263730       0.79531039       1.27603549       0.00000000
Si       1.08071119       1.17066457      -1.70222673       0.00000000
Si      -2.20690406       0.08591346      -0.81675957       0.00000000
Si       0.85960702      -2.07821306       0.79487818       0.00000000
H       -1.44792037      -1.87981715       1.70774085       0.00000000
H       -1.56185263       2.82616842       0.82256544       0.00000000
Si      -2.73266381      -1.93039760       0.89384044       0.00000000
Si       1.95685256      -0.61007680      -2.98535180       0.00000000
Si       0.71739532      -1.66619009       3.15410112       0.00000000
Si      -2.75488338       2.46130499      -0.07512613       0.00000000
