10
Lattice="16.290000149 0.0 0.0 0.0 16.290000149 0.0 0.0 0.0 29.1751946751" Properties=species:S:1:pos:R:3:initial_magmoms:R:1 pbc="T T T"
Si      -1.30407967       1.38129427      -1.37418084       0.00000000
Si       1.37958708       1.36138789       1.33342310       0.00000000
Si       1.39638859      -1.33721190      -1.34806905       0.00000000
Si      -1.38311875      -1.33743182       1.38115372       0.00000000
Si       0.08577517      -2.63115463       2.65249200       0.00000000
Si      -2.67766877      -0.00232947      -2.68303843       0.00000000
Si      -2.62808201       2.75191860      -0.00119618       0.00000000
Si       0.02564046      -2.70891299      -2.67816617       0.00000000
Si      -2.61555500       0.09242946       2.79708426       0.00000000
Si       2.72756504       0.02578707       2.70920858       0.00000000
