10
Lattice="16.290000149 0.0 0.0 0.0 16.290000149 0.0 0.0 0.0 29.1751946751" Properties=species:S:1:pos:R:3:initial_magmoms:R:1 pbc="T T T"
Si      -1.31028942       0.23411988       1.90797021       0.00000000
Si       2.20690406      -0.08591346       0.81675957       0.00000000
Si      -1.29564797      -0.16073343      -2.01825244       0.00000000
Si      -0.54797932       2.37539153       0.74163345       0.00000000
Si      -0.52575975      -2.01631106       1.71060001       0.00000000
H        2.05426676       0.70939693       2.09279506       0.00000000
H       -2.43376349       0.80415586      -1.73116853       0.00000000
H        0.21890502      -1.63005886      -2.64426459       0.00000000
H        0.64505143       2.74025496       1.63932501       0.00000000
H        0.75898369      -1.96573061       2.52450042       0.00000000
