10
Lattice="16.290000149 0.0 0.0 0.0 16.290000149 0.0 0.0 0.0 29.1751946751" Properties=species:S:1:pos:R:3:initial_magmoms:R:1 pbc="T T T"
Si      -1.34719930      -1.35689185      -1.36227736       0.00000000
Si      -1.36987498       1.36319608       1.33721587       0.00000000
Si       1.35319402       1.37440360      -1.34620183       0.00000000
Si       1.34623819      -1.35829279       1.36992127       0.00000000
Si      -0.00777033       2.71808426       2.68811491       0.00000000
Si      -2.70615998      -2.70080057       0.01140750       0.00000000
Si       2.71624349       2.70031187       0.02853334       0.00000000
Si       0.03065778      -2.70593192      -2.71276795       0.00000000
Si      -2.70114266       0.00979029      -2.71854464       0.00000000
Si       2.71726976      -2.70381422       0.03118828       0.00000000
