10
Lattice="16.290000149 0.0 0.0 0.0 16.290000149 0.0 0.0 0.0 29.1751946751" Properties=species:S:1:pos:R:3:initial_magmoms:R:1 pbc="T T T"
Si       1.36418977      -1.34153038       1.36070190       0.00000000
Si      -1.35495334       1.35304741       1.36399870       0.00000000
Si       1.35472528       1.37657017      -1.34156298       0.00000000
Si      -1.35079939      -1.40198257      -1.32551662       0.00000000
Si       2.70819623      -2.67287951      -0.02579087       0.00000000
Si      -2.77125483      -0.08516412      -2.62477556       0.00000000
Si       0.01233153      -2.73290816       2.68770646       0.00000000
Si      -2.72251514       2.70013268       0.01937233       0.00000000
Si       0.01094688       2.71443530      -2.71664825       0.00000000
Si      -2.72850986       0.00925272       2.70629106       0.00000000
