10
Lattice="16.290000149 0.0 0.0 0.0 16.290000149 0.0 0.0 0.0 29.1751946751" Properties=species:S:1:pos:R:3:initial_magmoms:R:1 pbc="T T T"
H       -0.89772562       0.76455487       0.96333575       0.00000000
Si       1.17825571       1.62111565      -1.16782469       0.00000000
Si       1.28863675      -1.04995567       1.61926853       0.00000000
Si      -1.56553417      -1.16812333      -1.32064436       0.00000000
H        1.69372507      -2.47858868       0.95525422       0.00000000
Si      -0.59129443       2.78171301      -2.18898568       0.00000000
Si      -1.95199814       2.43559937       1.78864424       0.00000000
Si       2.62918973       0.40995414      -2.51341385       0.00000000
Si      -2.20519361       2.95933917      -0.51021580       0.00000000
Si      -0.09736533      -2.34351200       2.98492292       0.00000000
