10
Lattice="16.290000149 0.0 0.0 0.0 16.290000149 0.0 0.0 0.0 29.1751946751" Properties=species:S:1:pos:R:3:initial_magmoms:R:1 pbc="T T T"
Si      -2.24270948       0.52002567      -0.27512209       0.00000000
Si       0.93441396      -0.81599543      -1.99260745       0.00000000
Si       0.28491634      -1.82025276       1.57333072       0.00000000
Si       1.33158208       1.97504849       0.48655472       0.00000000
Si       2.96764707       0.79975756       1.70183491       0.00000000
Si       1.63140605      -0.60516210       3.05493463       0.00000000
Si       2.77153176      -1.98904160      -1.05517927       0.00000000
Si      -0.93724516      -1.70138626      -3.11815728       0.00000000
Si      -2.97562917       1.14999256       1.90424308       0.00000000
H       -1.97664491      -0.58145038      -3.09744289       0.00000000
