10
Lattice="16.290000149 0.0 0.0 0.0 16.290000149 0.0 0.0 0.0 29.1751946751" Properties=species:S:1:pos:R:3:initial_magmoms:R:1 pbc="T T T"
Si       1.53640765      -1.27702198      -1.20470214       0.00000000
Si       1.30440547       1.32789565       1.44406419       0.00000000
Si      -1.22367223      -1.44490672       1.43163556       0.00000000
Si      -1.48527334       1.18816003      -1.44735223       0.00000000
H        0.31824144      -1.79002667      -2.24205536       0.00000000
H        3.09549588       1.19281897      -0.58560451       0.00000000
Si       2.69040755       2.62145198       0.07840979       0.00000000
Si      -2.69210171       2.66170457      -0.02672448       0.00000000
Si      -0.16376337       2.50328432      -2.86150309       0.00000000
Si      -2.66755268      -0.08390979       2.72049646       0.00000000
