10
Lattice="16.290000149 0.0 0.0 0.0 16.290000149 0.0 0.0 0.0 29.1751946751" Properties=species:S:1:pos:R:3:initial_magmoms:R:1 pbc="T T T"
Si       1.72445942      -1.61850925      -0.10363029       0.00000000
Si      -2.04099041      -1.04068666      -0.73489398       0.00000000
Si       1.37600002       1.76153546      -0.90626907       0.00000000
Si      -0.98124445       1.21929022       1.85813897       0.00000000
H        0.79845436      -1.44958195      -2.64452717       0.00000000
H       -0.61076098       0.58127608      -3.09799722       0.00000000
Si      -2.24178095       2.52610661       0.37778960       0.00000000
Si       2.15288642      -1.85880305       2.18379950       0.00000000
Si      -3.46770772       0.87311143      -0.78945159       0.00000000
Si       3.58782366      -0.70877791      -1.37601888       0.00000000
