10
Lattice="16.290000149 0.0 0.0 0.0 16.290000149 0.0 0.0 0.0 29.1751946751" Properties=species:S:1:pos:R:3:initial_magmoms:R:1 pbc="T T T"
Si       1.35742942       1.35099487       1.35142419       0.00000000
Si       1.42579855      -1.35641944      -1.27603549       0.00000000
Si      -1.32449104      -1.38691432       1.38077444       0.00000000
Si      -1.36677988       1.33328764      -1.39720007       0.00000000
Si       0.03780909      -2.69873174      -2.55433497       0.00000000
Si      -2.70156620       2.62189181       0.05169845       0.00000000
Si       2.69874803       2.70231554      -0.03477683       0.00000000
Si       2.70298343      -0.03008763       2.70509488       0.00000000
Si       0.01342296       2.68234400       2.73791697       0.00000000
Si      -2.70927137      -0.07125246       2.73870470       0.00000000
