10
Lattice="16.290000149 0.0 0.0 0.0 16.290000149 0.0 0.0 0.0 29.1751946751" Properties=species:S:1:pos:R:3:initial_magmoms:R:1 pbc="T T T"
Si      -1.14810292      -0.12737151       2.05892266       0.00000000
Si      -1.52591689       0.99901684      -1.50471067       0.00000000
Si       0.99779509      -1.76476088      -1.26748716       0.00000000
Si       1.52780653       1.84524977       0.42350713       0.00000000
H       -2.05695461      -2.80565931      -0.91513833       0.00000000
Si       2.29899143      -0.46789767      -2.76446640       0.00000000
H        0.73472788      -3.00438102       1.94265951       0.00000000
Si      -2.55523313       2.62251898      -0.18677960       0.00000000
Si      -0.23579775       2.43724857      -2.78620192       0.00000000
Si       0.41104557       0.65961469       3.65007943       0.00000000
