10
Lattice="16.290000149 0.0 0.0 0.0 16.290000149 0.0 0.0 0.0 29.1751946751" Properties=species:S:1:pos:R:3:initial_magmoms:R:1 pbc="T T T"
H        1.28474344       0.05058045       0.81390041       0.00000000
Si      -1.35988595      -1.38008555       1.33835371       0.00000000
Si      -0.78452967       2.25043094       0.19737019       0.00000000
Si       0.60225760      -1.50637867      -1.76022702       0.00000000
Si       0.52575975       2.01631106      -1.71060001       0.00000000
Si       0.47723184      -2.55313172       2.27578189       0.00000000
Si       2.73266381       1.93039760      -0.89384044       0.00000000
H       -3.06328566       1.00334998      -1.50088871       0.00000000
Si       2.66981699      -2.22970843      -0.91084958       0.00000000
Si       3.59227083      -0.14781546      -0.09896226       0.00000000
