10
Lattice="16.290000149 0.0 0.0 0.0 16.290000149 0.0 0.0 0.0 29.1751946751" Properties=species:S:1:pos:R:3:initial_magmoms:R:1 pbc="T T T"
Si      -0.34621137       0.88198948       2.13550755       0.00000000
Si      -1.85508893      -0.93098980      -1.10716946       0.00000000
Si       1.05554314       1.76270834      -1.18150786       0.00000000
Si       1.60155136      -1.77681548      -0.08962620       0.00000000
Si       2.13807881       0.34267644      -2.67977081       0.00000000
Si      -0.67191364      -2.38252655      -2.51901548       0.00000000
Si       1.27448074       2.57004074       2.20529462       0.00000000
Si       2.22953087      -2.18025362       2.05851421       0.00000000
Si       3.43300350      -0.95125456      -1.25322049       0.00000000
Si      -3.15711606      -2.16774290       0.39263977       0.00000000
