10
Lattice="16.290000149 0.0 0.0 0.0 16.290000149 0.0 0.0 0.0 29.1751946751" Properties=species:S:1:pos:R:3:initial_magmoms:R:1 pbc="T T T"
Si      -1.41995044       1.37238364      -1.25287038       0.00000000
Si      -1.30202713      -1.23675310       1.49980923       0.00000000
Si       1.18317529      -1.45153675      -1.41184602       0.00000000
Si       1.85508893       0.93098980       1.10716946       0.00000000
Si       3.45664029      -0.84582568       1.01754326       0.00000000
Si      -0.04377123       2.69301395      -2.61590630       0.00000000
Si       2.57856041      -2.73453716      -0.05231112       0.00000000
Si       2.56699451      -0.11570787      -2.75212529       0.00000000
Si       0.14558373      -2.58839957       2.78281759       0.00000000
Si      -2.77685859      -0.00913869      -2.60315674       0.00000000
