10
Lattice="16.290000149 0.0 0.0 0.0 16.290000149 0.0 0.0 0.0 29.1751946751" Properties=species:S:1:pos:R:3:initial_magmoms:R:1 pbc="T T T"
Si       1.21871030      -1.28457891      -1.60440231       0.00000000
Si      -1.28779456       1.34956135      -1.50027604       0.00000000
Si      -1.43924269      -1.42032348       1.34909018       0.00000000
Si       1.31791477       1.70051312       1.13144322       0.00000000
H        2.83246776       0.23118768       0.50543107       0.00000000
H        0.17979925       2.66540240       1.41852714       0.00000000
H       -0.97548268       0.84828547       3.35940697       0.00000000
Si      -2.62948784      -2.56803316      -0.34269184       0.00000000
Si       3.44593287      -1.07383355       0.94775620       0.00000000
Si       2.59813611      -2.73556344      -0.44675976       0.00000000
