10
Lattice="16.290000149 0.0 0.0 0.0 16.290000149 0.0 0.0 0.0 29.1751946751" Properties=species:S:1:pos:R:3:initial_magmoms:R:1 pbc="T T T"
Si      -1.26053650       1.30681639      -1.48034938       0.00000000
Si       1.14798889       1.50135157       1.43587763       0.00000000
Si      -1.53419710      -1.15667146       1.42257082       0.00000000
Si       0.98124445      -1.21929022      -1.85813897       0.00000000
H       -2.58575571       1.44451576      -0.50732746       0.00000000
Si      -1.05974596      -2.25997688      -2.59303295       0.00000000
Si      -2.48646327      -0.34617879      -2.64759057       0.00000000
Si       2.35724447       0.54224523      -2.76440805       0.00000000
Si      -0.16549011      -2.49253292       2.80684920       0.00000000
Si       2.51998157       0.15560208       2.80399587       0.00000000
