10
Lattice="16.290000149 0.0 0.0 0.0 16.290000149 0.0 0.0 0.0 29.1751946751" Properties=species:S:1:pos:R:3:initial_magmoms:R:1 pbc="T T T"
Si      -1.30756573      -1.31322488      -1.44606852       0.00000000
Si      -1.32367654       1.39420573       1.36440715       0.00000000
Si       1.26123697      -1.39224767       1.43013887       0.00000000
Si       1.36660069       1.35965464      -1.37648568       0.00000000
Si      -2.66206295      -2.66873208      -0.11214945       0.00000000
Si       2.66115071       0.02455229       2.68770646       0.00000000
Si       2.69123834      -2.67383085       0.01788439       0.00000000
Si      -2.67112019       2.72729789      -0.04315011       0.00000000
Si       0.07622091       2.76517214       2.67781607       0.00000000
Si      -2.68128515       0.03248389      -2.78439305       0.00000000
