10
Lattice="16.290000149 0.0 0.0 0.0 16.290000149 0.0 0.0 0.0 29.1751946751" Properties=species:S:1:pos:R:3:initial_magmoms:R:1 pbc="T T T"
Si      -1.35252613      -1.34475580       1.31440087       0.00000000
Si      -1.40339980       1.36190917      -1.25642684       0.00000000
Si       1.33517728      -1.15515649      -1.55736022       0.00000000
Si       1.42967557       1.45484362       1.22252818       0.00000000
Si       0.43043067       2.38244510      -2.19826923       0.00000000
Si       2.17719110       0.83782729      -2.65368760       0.00000000
Si       2.71770959      -2.50391963      -0.16814832       0.00000000
Si       0.06792930      -2.66157425       2.61365982       0.00000000
Si      -2.68646537       0.09713727       2.60315674       0.00000000
Si      -2.65471616      -2.64158642      -0.16209446       0.00000000
