10
Lattice="16.290000149 0.0 0.0 0.0 16.290000149 0.0 0.0 0.0 29.1751946751" Properties=species:S:1:pos:R:3:initial_magmoms:R:1 pbc="T T T"
Si       0.15263730      -0.79531039      -1.27603549       0.00000000
H       -1.40921533       2.03085803      -0.45347005       0.00000000
Si       0.92600506      -0.16892730       2.54089688       0.00000000
H       -1.29528307      -2.67512753       0.43170536       0.00000000
Si      -2.05426676      -0.70939693      -2.09279506       0.00000000
Si       1.01224432      -2.87352345      -0.48115731       0.00000000
Si      -0.79845436       1.44958195       2.64452717       0.00000000
Si       2.78936931       0.74080405       1.26850829       0.00000000
Si       0.87003262      -2.46150047       1.87806563       0.00000000
Si       1.23334849       0.37535418      -2.97826222       0.00000000
