10
Lattice="16.290000149 0.0 0.0 0.0 16.290000149 0.0 0.0 0.0 29.1751946751" Properties=species:S:1:pos:R:3:initial_magmoms:R:1 pbc="T T T"
Si       1.36756180      -1.34708527       1.34462637       0.00000000
Si       1.37948608       1.34429968      -1.33540701       0.00000000
Si      -1.35099487       1.37583712       1.34894430       0.00000000
Si      -1.38267892      -1.34340373      -1.35539202       0.00000000
Si      -0.05383845       2.69120739      -2.59764263       0.00000000
Si      -0.00599472      -2.69087996       2.68691873       0.00000000
Si      -2.72782568       0.02050911       2.68160884       0.00000000
Si       2.72251514      -2.70013268      -0.01937233       0.00000000
Si       2.72565911       0.01557324       2.70162303       0.00000000
Si      -0.04873968      -2.78529681      -2.64414789       0.00000000
