10
Lattice="16.290000149 0.0 0.0 0.0 16.290000149 0.0 0.0 0.0 29.1751946751" Properties=species:S:1:pos:R:3:initial_magmoms:R:1 pbc="T T T"
Si      -1.49038840       1.07175169       1.42529579       0.00000000
Si      -1.42125364      -1.43718526      -1.16770799       0.00000000
Si       1.56496402      -1.07507485       1.36426128       0.00000000
Si       1.31085631       1.48967164      -1.26996705       0.00000000
H       -2.52219701      -0.03780909       1.63897491       0.00000000
Si       1.98505055       0.73625914       2.85292559       0.00000000
Si      -0.32620399       0.90500725       3.44319813       0.00000000
Si       0.01259217      -2.68224626      -2.53666648       0.00000000
Si      -2.71381628      -0.02311551      -2.52461712       0.00000000
Si       2.81556363       0.15509709      -2.51779013       0.00000000
