10
Lattice="16.290000149 0.0 0.0 0.0 16.290000149 0.0 0.0 0.0 29.1751946751" Properties=species:S:1:pos:R:3:initial_magmoms:R:1 pbc="T T T"
Si       2.26819193      -0.48615876       0.11754686       0.00000000
Si      -0.27785853       0.73949107       2.20608235       0.00000000
Si      -0.57335914       1.73970848      -1.51792703       0.00000000
Si      -1.52780653      -1.84524977      -0.42350713       0.00000000
H       -1.31725828       1.85942695       2.22679673       0.00000000
Si       2.54259209      -1.30715848      -2.03555333       0.00000000
Si      -1.11676096      -1.18563508       3.22657230       0.00000000
Si      -2.67590945      -1.97262128       1.63541554       0.00000000
Si      -3.05372343      -0.84623293      -1.92821779       0.00000000
Si      -1.76360429       0.59199880      -3.20970904       0.00000000
