10
Lattice="16.290000149 0.0 0.0 0.0 16.290000149 0.0 0.0 0.0 29.1751946751" Properties=species:S:1:pos:R:3:initial_magmoms:R:1 pbc="T T T"
Si       0.62797951      -0.40343814       2.14814041       0.00000000
Si       1.83145214       0.82556092      -1.16359429       0.00000000
Si      -0.87807988      -1.88871149      -1.06985439       0.00000000
Si      -1.60155136       1.77681548       0.08962620       0.00000000
H        2.67509495       1.75985759      -0.35299068       0.00000000
Si      -2.27346500      -0.60571108      -2.42938929       0.00000000
Si       0.53652744       2.11949192      -2.59014461       0.00000000
Si      -1.49664376      -0.98883559       3.15033752       0.00000000
Si      -3.45664029       0.84582568      -1.01754326       0.00000000
Si      -0.54600822       3.53952381      -1.09188166       0.00000000
