10
Lattice="16.290000149 0.0 0.0 0.0 16.290000149 0.0 0.0 0.0 29.1751946751" Properties=species:S:1:pos:R:3:initial_magmoms:R:1 pbc="T T T"
Si      -2.05672655       0.61046938      -0.89244003       0.00000000
Si       1.02931624      -1.62350214      -1.31793107       0.00000000
Si      -0.52429365      -1.25674908       1.93014335       0.00000000
Si       1.51658272       1.85102457       0.07145005       0.00000000
Si       2.31943538      -0.18527041      -2.59942232       0.00000000
Si      -3.30015855      -1.17609729      -0.04983123       0.00000000
Si       2.55523313      -2.62251898       0.18677960       0.00000000
Si       0.77822218       3.17387032      -1.72043205       0.00000000
Si      -2.13679190       0.27513484       3.00708732       0.00000000
Si       0.89446762       2.92738633       2.11951954       0.00000000
