10
Lattice="16.290000149 0.0 0.0 0.0 16.290000149 0.0 0.0 0.0 29.1751946751" Properties=species:S:1:pos:R:3:initial_magmoms:R:1 pbc="T T T"
Si      -1.56496402       1.07507485      -1.36426128       0.00000000
Si       1.38388438      -1.47927862      -1.21459253       0.00000000
Si      -0.85317247      -1.49095855       1.62464989       0.00000000
Si       0.42008652       1.81133399       1.48866431       0.00000000
H        0.33985827      -1.12609513       2.52234146       0.00000000
Si      -1.89116802       1.98008210       2.07893685       0.00000000
Si      -0.25410771       2.56474649      -2.63422833       0.00000000
Si      -3.05535243       2.14682654       0.06103451       0.00000000
Si       2.69821046      -0.12147453      -2.59904304       0.00000000
Si      -0.12085551      -2.81999451      -2.51787765       0.00000000
