10
Lattice="16.290000149 0.0 0.0 0.0 16.290000149 0.0 0.0 0.0 29.1751946751" Properties=species:S:1:pos:R:3:initial_magmoms:R:1 pbc="T T T"
Si      -1.35742942      -1.35099487      -1.35142419       0.00000000
Si      -1.34400646       1.33134913       1.38649278       0.00000000
Si       1.34131861       1.35132067      -1.38620102       0.00000000
Si       1.34555401      -1.38108250       1.35367068       0.00000000
Si       0.06836913      -2.70741431      -2.62745968       0.00000000
Si      -2.70819623       2.67287951       0.02579087       0.00000000
Si       2.70467271       2.68275125      -0.00708957       0.00000000
Si      -2.69586470      -0.06002865       2.71349733       0.00000000
Si       2.69162605      -0.03945438      -2.71962412       0.00000000
Si       2.69731289      -0.02788848       2.71475186       0.00000000
