10
Lattice="16.290000149 0.0 0.0 0.0 16.290000149 0.0 0.0 0.0 29.1751946751" Properties=species:S:1:pos:R:3:initial_magmoms:R:1 pbc="T T T"
H       -1.03939975       1.11993588       0.02071439       0.00000000
Si      -0.83890243      -1.92512615       1.02048996       0.00000000
Si       0.27785853      -0.73949107      -2.20608235       0.00000000
Si       1.87165912       0.88539083       1.12554984       0.00000000
Si       2.54605046      -1.22564984      -2.08853549       0.00000000
Si      -2.39805092      -2.71211235      -0.57066681       0.00000000
Si       0.93724516       1.70138626       3.11815728       0.00000000
H        0.16825941       3.26882636      -1.71369258       0.00000000
Si      -2.88417711       0.53976753       2.39998069       0.00000000
Si       0.93064771      -3.08572350       2.04165095       0.00000000
