10
Lattice="16.290000149 0.0 0.0 0.0 16.290000149 0.0 0.0 0.0 29.1751946751" Properties=species:S:1:pos:R:3:initial_magmoms:R:1 pbc="T T T"
Si       1.34782575       1.35366643      -1.35749263       0.00000000
Si      -1.34394130       1.36521604       1.35078234       0.00000000
Si       1.34298019      -1.35819505       1.36857921       0.00000000
Si      -1.37081980      -1.34835589      -1.35492522       0.00000000
Si      -2.68120370      -0.08234595       2.60724127       0.00000000
Si       2.67049955      -2.70759350      -0.02666613       0.00000000
Si       2.66250116       2.71968068       0.03652734       0.00000000
Si      -0.02098152       2.71564076      -2.69272459       0.00000000
Si       2.69130188       0.02003670       2.71988670       0.00000000
Si      -0.02681334      -2.67970502      -2.74141799       0.00000000
