10
Lattice="16.290000149 0.0 0.0 0.0 16.290000149 0.0 0.0 0.0 29.1751946751" Properties=species:S:1:pos:R:3:initial_magmoms:R:1 pbc="T T T"
Si      -1.34797796       1.33560082      -1.37578548       0.00000000
Si       1.31360932       1.46732176       1.27892383       0.00000000
Si      -1.40920393      -1.29660093       1.38719298       0.00000000
Si       1.41876127      -1.35502828      -1.33596134       0.00000000
H        2.21923559       0.56856988       2.08847714       0.00000000
H        0.20455353       0.21916566       3.49702636       0.00000000
Si      -0.02977812      -2.74758546       2.54483553       0.00000000
Si      -2.64178987      -2.65694170      -0.05671658       0.00000000
Si      -2.62037619       2.69663033       0.04618433       0.00000000
Si       0.07475481      -2.70117524      -2.72426298       0.00000000
