10
Lattice="16.290000149 0.0 0.0 0.0 16.290000149 0.0 0.0 0.0 29.1751946751" Properties=species:S:1:pos:R:3:initial_magmoms:R:1 pbc="T T T"
Si      -0.72990604       2.18971648       0.40232593       0.00000000
Si       1.89675875       0.55419069       1.28823072       0.00000000
Si      -1.62044776      -1.48584512       0.93804086       0.00000000
Si       0.73262647       0.34769702      -2.26148604       0.00000000
H        1.44969598      -2.18185167      -1.27533528       0.00000000
H        1.71556508       1.94124511       1.89913012       0.00000000
Si       2.54049068       1.67811274      -1.65790961       0.00000000
Si       1.20692611       3.22250249      -0.49947933       0.00000000
H       -0.45295974      -2.59807746      -2.51277199       0.00000000
Si      -0.40744548      -2.89999633       2.39045032       0.00000000
