10
Lattice="16.290000149 0.0 0.0 0.0 16.290000149 0.0 0.0 0.0 29.1751946751" Properties=species:S:1:pos:R:3:initial_magmoms:R:1 pbc="T T T"
Si      -1.03348648       1.48714669       1.47162599       0.00000000
Si      -1.34154667      -1.45332865      -1.29231525       0.00000000
Si       0.91129519       1.83902699      -1.17039211       0.00000000
Si       1.49620393      -1.32382315       1.28910598       0.00000000
H       -1.91555741       2.33450363       0.57714370       0.00000000
H        2.79412599      -1.03798252      -1.28665526       0.00000000
Si       2.32745006      -2.32165082      -0.63905346       0.00000000
Si       0.44344638      -2.99980353      -1.92276203       0.00000000
Si       0.85654450       2.80363935       2.09953453       0.00000000
Si       2.47044368       2.62601318       0.42076466       0.00000000
