10
Lattice="16.290000149 0.0 0.0 0.0 16.290000149 0.0 0.0 0.0 29.1751946751" Properties=species:S:1:pos:R:3:initial_magmoms:R:1 pbc="T T T"
Si       1.30355839      -1.26811135       1.47746395       0.00000000
Si      -0.86426596      -1.93981322      -1.03387262       0.00000000
Si      -1.44388045       1.36099693       1.28886091       0.00000000
Si       1.22367223       1.44490672      -1.43163556       0.00000000
Si       2.55834452      -2.67441077       0.11653740       0.00000000
Si       2.52807770       2.77280238       0.01242863       0.00000000
Si      -0.10103058       2.76390804       2.63459885       0.00000000
Si       2.76007989       0.16788474      -2.63633769       0.00000000
Si      -1.52133940      -1.52031313      -3.16516727       0.00000000
Si      -0.10772577      -2.67418271       2.73589513       0.00000000
