10
Lattice="16.290000149 0.0 0.0 0.0 16.290000149 0.0 0.0 0.0 29.1751946751" Properties=species:S:1:pos:R:3:initial_magmoms:R:1 pbc="T T T"
Si       1.37358910       1.38362374       1.30885758       0.00000000
Si       1.37140624      -1.33836035      -1.36551581       0.00000000
Si      -1.32405121       1.36306576      -1.39346565       0.00000000
Si      -1.36660069      -1.35965464       1.37648568       0.00000000
Si      -2.67416642      -2.67287951      -0.06958284       0.00000000
Si       2.67766877       0.00232947       2.68303843       0.00000000
Si      -2.68429880       2.71498916      -0.04084527       0.00000000
Si       2.70330923      -2.70658352       0.00487226       0.00000000
Si      -2.69027723       0.03455109       2.74089284       0.00000000
Si       0.04958676       2.75424807       2.68184225       0.00000000
