10
Lattice="16.290000149 0.0 0.0 0.0 16.290000149 0.0 0.0 0.0 29.1751946751" Properties=species:S:1:pos:R:3:initial_magmoms:R:1 pbc="T T T"
Si       1.36335410       1.33143058       1.37911145       0.00000000
Si       1.35030743      -1.39077505      -1.33342310       0.00000000
Si      -1.34131861      -1.35132067       1.38620102       0.00000000
Si      -1.35156502       1.39362580      -1.34768977       0.00000000
Si       2.70946685       2.67884165       0.00983204       0.00000000
Si      -2.69478956       2.69812901       0.07042892       0.00000000
Si      -2.69874803      -2.70231554       0.03477683       0.00000000
Si       2.72148887      -0.07902279      -2.69771063       0.00000000
Si      -2.75053395       0.07723089      -2.69533285       0.00000000
Si       0.01441665      -2.73676890      -2.71407500       0.00000000
