10
Lattice="16.290000149 0.0 0.0 0.0 16.290000149 0.0 0.0 0.0 29.1751946751" Properties=species:S:1:pos:R:3:initial_magmoms:R:1 pbc="T T T"
Si      -1.32046741      -1.34175665      -1.33840914       0.00000000
Si       1.31573859      -1.42885781       1.28423372       0.00000000
Si      -1.44223516       1.33342122       1.28248321       0.00000000
Si       1.30067751       1.29131157      -1.47067488       0.00000000
Si       2.63229950      -0.04731756       2.64543160       0.00000000
Si      -0.07447788       2.68163050       2.62247072       0.00000000
Si      -2.73875628       0.00595237      -2.58798856       0.00000000
Si       2.66090311       2.68687588      -0.15074823       0.00000000
Si      -0.15239295       2.67537514      -2.69515489       0.00000000
Si       2.59421836      -2.77605712      -0.16985798       0.00000000
