10
Lattice="16.290000149 0.0 0.0 0.0 16.290000149 0.0 0.0 0.0 29.1751946751" Properties=species:S:1:pos:R:3:initial_magmoms:R:1 pbc="T T T"
Si       1.31738860       1.31880583      -1.37611983       0.00000000
Si      -1.25478613       1.40629942       1.36092655       0.00000000
Si      -1.72367750      -0.94105702      -1.27610697       0.00000000
Si       1.45307046      -1.38406357       1.22448000       0.00000000
Si      -3.42261048       0.73459756      -1.15041002       0.00000000
Si      -2.55834452       2.67441077      -0.11653740       0.00000000
Si      -2.58636332      -2.66942278       0.10716633       0.00000000
Si       2.58353375      -0.11600109      -2.69379532       0.00000000
Si      -2.66607029       0.00022806       2.61935773       0.00000000
Si       2.81329606       0.01150074       2.54440666       0.00000000
