10
Lattice="16.290000149 0.0 0.0 0.0 16.290000149 0.0 0.0 0.0 29.1751946751" Properties=species:S:1:pos:R:3:initial_magmoms:R:1 pbc="T T T"
Si      -1.23074209       1.20923782       1.59583063       0.00000000
Si      -1.94756726      -0.83730601      -1.06130256       0.00000000
Si       1.29942073      -1.51698997       1.33396284       0.00000000
Si       1.47420038       1.31506728      -1.36793444       0.00000000
H       -0.89329474      -2.50835051      -1.88661105       0.00000000
Si      -2.64903095       2.55694684       0.34625121       0.00000000
Si       2.63757583      -0.28015542      -2.65386032       0.00000000
Si       2.82069009       2.53015794       0.11366948       0.00000000
Si      -3.69432768       0.70731181      -0.60588419       0.00000000
Si       2.68394368      -0.22506264       2.76438179       0.00000000
