10
Lattice="16.290000149 0.0 0.0 0.0 16.290000149 0.0 0.0 0.0 29.1751946751" Properties=species:S:1:pos:R:3:initial_magmoms:R:1 pbc="T T T"
Si       1.34648971       1.21509066       1.48160391       0.00000000
Si       1.16337545      -1.59522270      -1.28592588       0.00000000
Si      -1.47420038      -1.31506728       1.36793444       0.00000000
Si      -0.28491634       1.82025276      -1.57333072       0.00000000
Si       2.48661542      -0.16878884      -2.62850999       0.00000000
Si       2.68273073       2.62001032       0.12850419       0.00000000
Si       0.64949762       1.00425733      -3.56593817       0.00000000
Si      -0.08379755       2.52723877       2.83149932       0.00000000
Si       2.53348175      -2.82252760       0.16881468       0.00000000
Si       2.62415189      -0.15534959       2.87185737       0.00000000
