10
Lattice="16.290000149 0.0 0.0 0.0 16.290000149 0.0 0.0 0.0 29.1751946751" Properties=species:S:1:pos:R:3:initial_magmoms:R:1 pbc="T T T"
Si      -1.54137610      -1.30753315      -1.19495762       0.00000000
Si      -1.40693473       1.17470449       1.47573970       0.00000000
Si       1.39013974      -1.31338126       1.43002217       0.00000000
Si       0.78565042       1.49812778      -1.71089177       0.00000000
H        1.17485110      -2.08151993      -2.24155938       0.00000000
Si      -1.28190898       2.22145755      -2.56026921       0.00000000
Si      -0.18059094      -2.66015702      -2.51825693       0.00000000
Si      -2.56966119       0.23670999      -2.67577380       0.00000000
Si       0.04096935       2.62218666       2.74512324       0.00000000
H       -0.59942314       3.77841666       0.01385822       0.00000000
