10
Lattice="16.290000149 0.0 0.0 0.0 16.290000149 0.0 0.0 0.0 29.1751946751" Properties=species:S:1:pos:R:3:initial_magmoms:R:1 pbc="T T T"
Si       0.89772562      -0.76455487      -0.96333575       0.00000000
Si      -1.05427252       1.67104451       0.82530849       0.00000000
Si      -1.89628634      -0.32193927       1.92163587       0.00000000
Si       2.18636237      -1.81451054       0.65593277       0.00000000
Si      -1.30746799       2.19478430      -1.47355156       0.00000000
Si      -0.66780856      -1.93267820      -2.28398012       0.00000000
Si       2.07598133       0.85656079      -2.13116045       0.00000000
Si       0.89329474       2.50835051       1.88661105       0.00000000
Si      -3.19614690      -1.77425795       0.55079850       0.00000000
Si      -0.51375402      -1.67070242       3.31084777       0.00000000
