10
Lattice="16.290000149 0.0 0.0 0.0 16.290000149 0.0 0.0 0.0 29.1751946751" Properties=species:S:1:pos:R:3:initial_magmoms:R:1 pbc="T T T"
Si       2.06755940      -0.72332976       0.84937744       0.00000000
Si       0.75587230       0.58760963      -2.15231246       0.00000000
Si      -1.28775220      -1.98474755      -0.11550460       0.00000000
Si      -0.60225760       1.50637867       1.76022702       0.00000000
H        0.68248585       1.55695912       2.57412743       0.00000000
H        0.14240718       1.89263086      -2.59463759       0.00000000
Si      -0.07649784       3.52268973       0.04962701       0.00000000
Si       1.28190898      -2.22145755       2.56026921       0.00000000
Si       3.11863908      -1.39302959      -1.22057344       0.00000000
Si      -1.96214355       0.12629311       3.09858073       0.00000000
