10
Lattice="16.28999089631971 0.0 0.0 0.0 16.28999089631971 0.0 0.0 0.0 34.54679606040008" Properties=species:S:1:pos:R:3:initial_magmoms:R:1 pbc="T T T"
Si       1.95744550       0.69887684      -1.24416007       0.00000000
Si      -1.38841366       1.32583007       1.48027231       0.00000000
Si       1.30143091      -1.40326569       1.49244661       0.00000000
Si      -1.61500756      -1.31056064      -1.31370281       0.00000000
Si       2.63996392       2.57116799       0.16180346       0.00000000
Si      -2.73795871       2.61904430      -0.06999185       0.00000000
Si       2.48357992      -2.96853063       0.14280963       0.00000000
Si       2.68062376      -0.03670789       2.86575161       0.00000000
Si      -2.77391074      -2.77767699       0.15593396       0.00000000
Si      -0.03692617       2.68180967       2.87093363       0.00000000
