10
Lattice="16.28999089631971 0.0 0.0 0.0 16.28999089631971 0.0 0.0 0.0 34.54679606040008" Properties=species:S:1:pos:R:3:initial_magmoms:R:1 pbc="T T T"
Si       1.57270828      -0.90657108       1.48102197       0.00000000
Si      -1.45479541      -1.92085164      -0.01043314       0.00000000
Si      -1.44498883       1.81626984       0.74614212       0.00000000
Si       0.31911947       0.61164063      -2.34189407       0.00000000
Si      -1.35795136       2.34007479      -2.45880049       0.00000000
Si      -2.27885764      -1.83457980      -2.27307681       0.00000000
Si      -3.30408508       1.56090780      -0.89828629       0.00000000
Si       0.23915838       3.68253369       0.92195086       0.00000000
Si      -0.04287691      -3.85583390       0.09814750       0.00000000
Si       3.16362226       0.68580900       2.10234645       0.00000000
