10
Lattice="16.28999089631971 0.0 0.0 0.0 16.28999089631971 0.0 0.0 0.0 34.54679606040008" Properties=species:S:1:pos:R:3:initial_magmoms:R:1 pbc="T T T"
Si       0.59539950       1.79773182      -1.37420322       0.00000000
Si      -1.30020264      -1.89558585      -0.53841212       0.00000000
Si       1.71563022      -0.72513306       1.45442093       0.00000000
Si      -1.69860717       0.60841521       1.53633143       0.00000000
Si       1.81496664       0.31416894      -2.83390981       0.00000000
Si       3.29391945      -0.61923177      -1.10739817       0.00000000
Si      -3.28952115      -0.98396487       0.91500695       0.00000000
Si       2.39037831      -2.67321669       0.24590423       0.00000000
Si       0.41839236      -1.69179795       3.20698087       0.00000000
Si       0.09233172      -3.63587587       0.30805395       0.00000000
