10
Lattice="16.28999089631971 0.0 0.0 0.0 16.28999089631971 0.0 0.0 0.0 34.54679606040008" Properties=species:S:1:pos:R:3:initial_magmoms:R:1 pbc="T T T"
Si       1.34517933      -1.28660049       1.44368032       0.00000000
Si      -1.72346571      -1.09757133      -1.21742632       0.00000000
Si       1.75712085       0.71086302      -1.50796646       0.00000000
Si      -1.34770428       1.44179532       1.41876170       0.00000000
Si       2.71878471      -2.58686829       0.03021810       0.00000000
Si      -3.53512548       0.53765145      -1.33799613       0.00000000
Si      -2.79145440       2.61521289      -0.10525378       0.00000000
Si       0.00086337      -2.63767680       2.80825880       0.00000000
Si       0.13113450      -0.17151741      -3.87466514       0.00000000
Si      -2.75485077      -2.74497903       0.10037232       0.00000000
