10
Lattice="16.28999089631971 0.0 0.0 0.0 16.28999089631971 0.0 0.0 0.0 34.54679606040008" Properties=species:S:1:pos:R:3:initial_magmoms:R:1 pbc="T T T"
Si       1.35661491      -1.35708732       1.35755166       0.00000000
Si       1.35695700       1.35782037      -1.35706800       0.00000000
Si      -1.35757602       1.35718506       1.35786258       0.00000000
Si      -1.35817875      -1.35975888      -1.35703345       0.00000000
Si      -2.71423980       0.00074934       2.71479239       0.00000000
Si       2.71474479      -2.71463076      -0.00020728       0.00000000
Si      -2.71492398       2.71476108       0.00003455       0.00000000
Si       2.71472850       2.71539639       0.00010364       0.00000000
Si       2.71469592      -0.00073305       2.71548333       0.00000000
Si      -0.00017919       2.71598283       2.71427419       0.00000000
