10
Lattice="16.28999089631971 0.0 0.0 0.0 16.28999089631971 0.0 0.0 0.0 34.54679606040008" Properties=species:S:1:pos:R:3:initial_magmoms:R:1 pbc="T T T"
Si       1.35544203      -1.35785295      -1.35768984       0.00000000
Si      -1.35679410       1.35845568      -1.35775894       0.00000000
Si       1.34517933       1.36220238       1.37029943       0.00000000
Si      -1.37140623      -1.34169327       1.38093985       0.00000000
Si       0.08140113      -2.55220317       2.79469918       0.00000000
Si       2.71019988       2.71531494       0.00293648       0.00000000
Si      -2.71324611      -2.71437012       0.00476746       0.00000000
Si       2.71406061       0.00061902      -2.71499967       0.00000000
Si      -0.00013032       2.71489140      -2.71468875       0.00000000
Si      -2.71497285       0.00057015      -2.71465420       0.00000000
