10
Lattice="16.28999089631971 0.0 0.0 0.0 16.28999089631971 0.0 0.0 0.0 34.54679606040008" Properties=species:S:1:pos:R:3:initial_magmoms:R:1 pbc="T T T"
Si      -0.77121747       2.17847799       0.37659483       0.00000000
Si       2.28016017      -0.08759133      -0.57634452       0.00000000
Si      -1.17626832      -0.90111393      -1.83830514       0.00000000
Si      -0.82083681      -1.07212635       1.98305630       0.00000000
Si      -3.00120444      -1.67946642      -0.63759602       0.00000000
Si      -1.78789266      -2.94179481       1.00990705       0.00000000
Si      -2.92881168       1.68710643       1.34373293       0.00000000
Si       3.42533088       0.03554478       1.40384439       0.00000000
Si       0.49088286       3.14942715       2.07826732       0.00000000
Si       2.76113871      -2.02665519      -1.72685711       0.00000000
