10
Lattice="16.28999089631971 0.0 0.0 0.0 16.28999089631971 0.0 0.0 0.0 34.54679606040008" Properties=species:S:1:pos:R:3:initial_magmoms:R:1 pbc="T T T"
Si      -1.26210033      -0.97094916      -1.70167248       0.00000000
Si      -0.49213719       0.26668359       2.27190222       0.00000000
Si       2.19647844      -0.87501735      -0.19809144       0.00000000
Si      -0.12636153       2.33264655      -0.68129775       0.00000000
Si       1.18848582       1.92036294      -2.58441271       0.00000000
Si       2.83675689       0.29884005      -2.12234906       0.00000000
Si      -0.52844760       0.48018033      -3.50463623       0.00000000
Si       1.61119503       1.07098605       3.02903022       0.00000000
Si      -1.75565475       2.20784886       2.23559352       0.00000000
Si       3.05515692      -0.42285582       1.90719149       0.00000000
