10
Lattice="16.28999089631971 0.0 0.0 0.0 16.28999089631971 0.0 0.0 0.0 34.54679606040008" Properties=species:S:1:pos:R:3:initial_magmoms:R:1 pbc="T T T"
Si      -1.83428658       1.39797522      -0.36329431       0.00000000
Si       1.35527913      -0.98759754      -1.70257070       0.00000000
Si       1.71693342       1.44018261       0.92022352       0.00000000
Si      -0.73365273      -1.45112949       1.80296375       0.00000000
Si       0.40208607       1.85246622       2.82333849       0.00000000
Si      -1.65203406       2.58960501       1.75646373       0.00000000
Si      -0.92435976       2.63352285      -2.17928221       0.00000000
Si       3.04668612      -1.82120571      -0.31879801       0.00000000
Si       0.52844760      -0.48018033       3.50463623       0.00000000
Si       3.36520449      -0.18134028       1.38228718       0.00000000
