10
Lattice="16.28999089631971 0.0 0.0 0.0 16.28999089631971 0.0 0.0 0.0 34.54679606040008" Properties=species:S:1:pos:R:3:initial_magmoms:R:1 pbc="T T T"
Si       1.39953906      -0.94988619      -1.64239015       0.00000000
Si       0.21986613       0.05463666       2.40877670       0.00000000
Si      -0.56343852       2.29315959      -0.59088873       0.00000000
Si      -2.16849222      -1.06300395      -0.69332004       0.00000000
Si      -0.76372407      -1.25664318      -2.61512483       0.00000000
Si      -1.63312137       1.71735696       2.56213524       0.00000000
Si      -2.64495843       2.31129036       0.47892250       0.00000000
Si      -3.77079943       0.68857830      -0.83174913       0.00000000
Si      -0.18487521       2.56544694      -2.98460302       0.00000000
Si       2.93320998       0.57016629      -2.60417349       0.00000000
