10
Lattice="16.28999089631971 0.0 0.0 0.0 16.28999089631971 0.0 0.0 0.0 34.54679606040008" Properties=species:S:1:pos:R:3:initial_magmoms:R:1 pbc="T T T"
Si      -1.79944227      -1.04504911       1.10644295       0.00000000
Si      -1.05011856       0.59877153      -2.03145262       0.00000000
Si       1.05658569       1.82008170       1.10068745       0.00000000
Si      -0.31120416      -2.31847099       2.48479870       0.00000000
Si       2.40966567       0.41910912       2.50978641       0.00000000
Si       3.24061857      -0.60295806      -1.82002611       0.00000000
Si      -3.01405725       0.40896045       2.52436171       0.00000000
Si      -0.31701969       3.12034950       2.51414967       0.00000000
Si       2.91301038      -2.77103393      -0.20288969       0.00000000
Si      -0.03262887       2.44359774      -3.21616656       0.00000000
