10
Lattice="16.28999089631971 0.0 0.0 0.0 16.28999089631971 0.0 0.0 0.0 34.54679606040008" Properties=species:S:1:pos:R:3:initial_magmoms:R:1 pbc="T T T"
Si      -1.35659862      -1.35843618       1.35686072       0.00000000
Si       1.35700587      -1.35721443      -1.35800077       0.00000000
Si      -1.35747828       1.35764506      -1.35772439       0.00000000
Si       1.35909099       1.35849377       1.35696436       0.00000000
Si      -0.00008145      -2.71208631       2.71175227       0.00000000
Si      -0.00141723       2.71550453      -2.71375599       0.00000000
Si       2.71469592      -2.71469271      -0.00055275       0.00000000
Si      -2.71482624      -2.71467642      -0.00027637       0.00000000
Si      -2.71433754      -0.00071354      -2.71524150       0.00000000
Si       0.00237834       2.71206734       2.71769432       0.00000000
