10
Lattice="16.28999089631971 0.0 0.0 0.0 16.28999089631971 0.0 0.0 0.0 34.54679606040008" Properties=species:S:1:pos:R:3:initial_magmoms:R:1 pbc="T T T"
Si      -1.35656604      -1.35668496       1.35710255       0.00000000
Si       1.35716877      -1.35733656      -1.35779348       0.00000000
Si       1.35881406       1.35785295       1.35727528       0.00000000
Si      -1.35826020       1.35793440      -1.35786258       0.00000000
Si       2.71417464       0.00100998       2.71026676       0.00000000
Si       0.00115659       2.71264338       2.71593244       0.00000000
Si       2.71415835      -2.71461026       0.00003455       0.00000000
Si       2.71446786       2.71480995       0.00003455       0.00000000
Si       2.71515204       0.00081450      -2.71427419       0.00000000
Si      -0.00045612       2.71414206      -2.71607062       0.00000000
