10
Lattice="16.28999089631971 0.0 0.0 0.0 16.28999089631971 0.0 0.0 0.0 34.54679606040008" Properties=species:S:1:pos:R:3:initial_magmoms:R:1 pbc="T T T"
Si      -0.45911736      -0.25686398       2.31087103       0.00000000
Si       1.89499941      -1.47116034      -0.08391421       0.00000000
Si      -2.00306727      -0.67945005      -1.14899253       0.00000000
Si       0.78625314       2.09251240      -1.09820871       0.00000000
Si       0.74601684       1.91553784       2.14470084       0.00000000
Si      -0.53019063      -1.82007585      -2.59626227       0.00000000
Si       0.66878595      -3.21031332      -1.16471133       0.00000000
Si       2.20147947       0.90286999      -2.58517274       0.00000000
Si      -1.55194830       2.84546878       1.94343110       0.00000000
Si       3.62509515      -0.30535198      -1.13831757       0.00000000
