10
Lattice="16.28999089631971 0.0 0.0 0.0 16.28999089631971 0.0 0.0 0.0 34.54679606040008" Properties=species:S:1:pos:R:3:initial_magmoms:R:1 pbc="T T T"
Si       1.33991766       1.35294966       1.38744502       0.00000000
Si      -1.36752921      -1.36062225       1.38326485       0.00000000
Si      -1.27667988       1.33235910      -1.52391530       0.00000000
Si       1.41693678      -1.33827237      -1.51650155       0.00000000
Si      -0.38330370      -2.34175266      -2.93703693       0.00000000
Si      -2.32552782      -0.72894492      -2.92864206       0.00000000
Si       2.69946477       2.71640637       0.03489228       0.00000000
Si       2.71326240      -2.72789082      -0.00663990       0.00000000
Si      -2.73307104       2.70984150      -0.01833054       0.00000000
Si       2.70387936      -0.00203625       2.74416755       0.00000000
