10
Lattice="16.28999089631971 0.0 0.0 0.0 16.28999089631971 0.0 0.0 0.0 34.54679606040008" Properties=species:S:1:pos:R:3:initial_magmoms:R:1 pbc="T T T"
Si       1.23554763      -1.45490877      -1.30669874       0.00000000
Si      -1.30435659      -1.26356643       1.49366611       0.00000000
Si      -1.51387857       1.28974446      -1.29802749       0.00000000
Si       1.25602416       1.54469925       1.31675187       0.00000000
Si      -0.49008465       1.32001128       2.85356695       0.00000000
Si       2.57254938      -0.07467336      -2.66729052       0.00000000
Si      -0.14885802       2.64285702      -2.66539045       0.00000000
Si      -2.77765677      -2.62466109       0.12637225       0.00000000
Si      -0.14188590      -2.79042813      -2.66539045       0.00000000
Si       2.51279766      -2.94992352       0.17853794       0.00000000
