10
Lattice="16.28999089631971 0.0 0.0 0.0 16.28999089631971 0.0 0.0 0.0 34.54679606040008" Properties=species:S:1:pos:R:3:initial_magmoms:R:1 pbc="T T T"
Si       1.14517071       0.12313611       1.98018891       0.00000000
Si       0.48097854      -1.93906386      -1.15051259       0.00000000
Si       0.72896121       1.89599310      -1.16882240       0.00000000
Si      -2.28016017       0.08759133       0.57634452       0.00000000
Si       0.40720113       2.36200113       2.45652040       0.00000000
Si       3.43510488       0.12243564       1.19314336       0.00000000
Si       1.04747958       3.53585853       0.53226278       0.00000000
Si      -3.45642849      -0.81352260      -1.26196062       0.00000000
Si      -0.40733145      -3.78019876       0.04470358       0.00000000
Si       0.58761288      -1.77608241       3.35439213       0.00000000
