10
Lattice="16.28999089631971 0.0 0.0 0.0 16.28999089631971 0.0 0.0 0.0 34.54679606040008" Properties=species:S:1:pos:R:3:initial_magmoms:R:1 pbc="T T T"
Si       1.33729497       1.34568432      -1.36256094       0.00000000
Si      -1.23228963       1.42063461       1.42605799       0.00000000
Si       1.49576409      -1.20210426       1.37606875       0.00000000
Si      -1.38181554      -1.36813194      -1.35793167       0.00000000
Si       0.02306664      -2.46628971       2.62421064       0.00000000
Si      -2.56106493      -0.18148689       2.59947512       0.00000000
Si       2.67314013       2.71207323       0.00659844       0.00000000
Si       2.69376327      -0.01083285      -2.71852345       0.00000000
Si      -2.72453508       2.68923465       0.00462927       0.00000000
Si      -0.02000412       2.70459612      -2.71838526       0.00000000
