10
Lattice="16.28999089631971 0.0 0.0 0.0 16.28999089631971 0.0 0.0 0.0 34.54679606040008" Properties=species:S:1:pos:R:3:initial_magmoms:R:1 pbc="T T T"
Si       1.33969286      -1.17431352       1.53474918       0.00000000
Si       1.88975729       0.66041289      -1.24785312       0.00000000
Si      -1.30246793      -1.26557010      -1.56236733       0.00000000
Si      -1.34527430       1.53705924       1.52729743       0.00000000
Si      -1.97246229       0.52093791      -2.97004641       0.00000000
Si      -2.70789063      -2.57434128      -0.04127999       0.00000000
Si       2.67003200      -2.62221759       0.19051532       0.00000000
Si       2.63342837       2.73797433      -0.01511078       0.00000000
Si      -0.00685809      -2.51157591       2.89964549       0.00000000
Si       1.37316881      -0.39187224      -3.60429140       0.00000000
