10
Lattice="16.28999089631971 0.0 0.0 0.0 16.28999089631971 0.0 0.0 0.0 34.54679606040008" Properties=species:S:1:pos:R:3:initial_magmoms:R:1 pbc="T T T"
Si       1.33177266       1.57180581       1.11396206       0.00000000
Si      -2.01722328       1.04195727      -0.68285235       0.00000000
Si      -1.10405475      -1.50840513       1.49625712       0.00000000
Si       1.73092653      -0.76341456      -1.57467839       0.00000000
Si      -3.03461523      -0.98712513      -1.44623333       0.00000000
Si       2.34690030       2.71080261      -0.71636276       0.00000000
Si      -1.37945349      -1.19272122      -3.17087945       0.00000000
Si       3.07260351       0.16009812       2.08852772       0.00000000
Si      -2.53664622      -2.73540051       0.09303457       0.00000000
Si       0.58735224      -2.34201330       2.88002981       0.00000000
