10
Lattice="16.28999089631971 0.0 0.0 0.0 16.28999089631971 0.0 0.0 0.0 34.54679606040008" Properties=species:S:1:pos:R:3:initial_magmoms:R:1 pbc="T T T"
Si      -1.31484735       0.41228361       1.90311496       0.00000000
Si       1.64827107      -1.62152289       0.46206366       0.00000000
Si       0.67095252       1.81706805      -1.38242536       0.00000000
Si      -1.71693342      -1.44018261      -0.92022352       0.00000000
Si       0.99008991       1.55388681       2.32296241       0.00000000
Si      -1.18848582      -1.92036294       2.58441271       0.00000000
Si      -0.36165429      -2.42778015      -2.62279422       0.00000000
Si      -3.36896748       1.14942240       0.83624021       0.00000000
Si       3.63972357      -0.41221845       0.33669326       0.00000000
Si      -1.48784715       2.80494252      -1.88186867       0.00000000
