10
Lattice="16.28999089631971 0.0 0.0 0.0 16.28999089631971 0.0 0.0 0.0 34.54679606040008" Properties=species:S:1:pos:R:3:initial_magmoms:R:1 pbc="T T T"
Si      -1.47070048       1.26967518      -1.28098900       0.00000000
Si      -1.37222743      -1.33809318       1.36751150       0.00000000
Si       1.34285198       1.37775933       1.37013706       0.00000000
Si       1.34527430      -1.53705924      -1.52729743       0.00000000
Si      -0.02001603       2.61581562      -2.43966985       0.00000000
Si       2.68496716      -2.71137276       0.00745175       0.00000000
Si       2.70042637       2.70446580       0.00645680       0.00000000
Si       2.69343796       0.02186118       2.72723961       0.00000000
Si      -0.01961068      -2.69390988       2.72872512       0.00000000
Si      -2.72392276      -2.70238068      -0.02311873       0.00000000
