10
Lattice="16.28999089631971 0.0 0.0 0.0 16.28999089631971 0.0 0.0 0.0 34.54679606040008" Properties=species:S:1:pos:R:3:initial_magmoms:R:1 pbc="T T T"
Si      -1.35549090       1.35371881       1.36221548       0.00000000
Si       1.37380086       1.35330760      -1.34572628       0.00000000
Si       1.35866745      -1.36155078       1.36145545       0.00000000
Si      -1.36775727      -1.36568844      -1.36511741       0.00000000
Si       0.02621061       2.68542183      -2.69284825       0.00000000
Si       2.69464293      -0.03075552      -2.70836668       0.00000000
Si      -2.71446786       2.71137995      -0.00124369       0.00000000
Si       2.71632492       2.70956687       0.00390379       0.00000000
Si      -2.71275741      -2.71681362       0.00366196       0.00000000
Si       0.00213399       2.71170086       2.71938712       0.00000000
