10
Lattice="16.28999089631971 0.0 0.0 0.0 16.28999089631971 0.0 0.0 0.0 34.54679606040008" Properties=species:S:1:pos:R:3:initial_magmoms:R:1 pbc="T T T"
Si      -1.35573525      -1.35625653       1.35672253       0.00000000
Si      -1.35363384       1.35856971      -1.35900262       0.00000000
Si       1.35940050      -1.35466011      -1.35927900       0.00000000
Si       1.35847197       1.35879777       1.35637706       0.00000000
Si      -2.71336014       0.00133578       2.71410146       0.00000000
Si       0.00143352      -2.71336014       2.71427419       0.00000000
Si      -2.71363707      -2.71409319      -0.00027637       0.00000000
Si      -2.71287144       2.71529866      -0.00086367       0.00000000
Si       2.71606428      -2.71376739       0.00055275       0.00000000
Si       2.71616202       0.00131949       2.71382508       0.00000000
