10
Lattice="16.28999089631971 0.0 0.0 0.0 16.28999089631971 0.0 0.0 0.0 34.54679606040008" Properties=species:S:1:pos:R:3:initial_magmoms:R:1 pbc="T T T"
Si       1.35802689      -1.35472527      -1.35637706       0.00000000
Si      -1.35261675       1.35581670      -1.36121362       0.00000000
Si      -1.35644490      -1.35694071       1.35686072       0.00000000
Si       1.35834291       1.35780408       1.35668799       0.00000000
Si       0.01961068       2.69390988      -2.72872512       0.00000000
Si       2.70457783      -0.01746288      -2.72127337       0.00000000
Si      -2.71348335      -2.71360449      -0.00010364       0.00000000
Si       2.71324411      -2.71485882      -0.00103640       0.00000000
Si      -2.71416753       0.00039096       2.71420510       0.00000000
Si       2.71304863       2.71577106      -0.00148551       0.00000000
