10
Lattice="16.28999089631971 0.0 0.0 0.0 16.28999089631971 0.0 0.0 0.0 34.54679606040008" Properties=species:S:1:pos:R:3:initial_magmoms:R:1 pbc="T T T"
Si      -0.88918965       1.53351521      -1.57644028       0.00000000
Si       0.01185912      -2.34461970       0.44973044       0.00000000
Si      -1.69122780       1.29767769       1.07951889       0.00000000
Si       2.47117671      -0.47096019      -0.20313527       0.00000000
Si       0.63226377      -2.68384266      -1.82728471       0.00000000
Si      -0.17700714       2.61951412       2.28129895       0.00000000
Si       2.39321277      -1.14073983      -2.44325442       0.00000000
Si       3.45378951       1.24326909       1.18274477       0.00000000
Si      -2.88556173       2.58186304      -0.59057781       0.00000000
Si      -2.25331425      -3.25602891       0.44897041       0.00000000
