10
Lattice="16.28999089631971 0.0 0.0 0.0 16.28999089631971 0.0 0.0 0.0 34.54679606040008" Properties=species:S:1:pos:R:3:initial_magmoms:R:1 pbc="T T T"
Si      -1.88621910       1.41908706       0.19290942       0.00000000
Si      -0.67794093      -1.85807894      -1.35005500       0.00000000
Si       0.82406223      -0.08627184       2.26264367       0.00000000
Si       1.83762603       0.69227613      -1.41033919       0.00000000
Si       0.60742152       2.05480431      -2.81691278       0.00000000
Si      -2.10155661      -0.64985697      -2.79691017       0.00000000
Si       2.59797711       2.44622043      -0.06881726       0.00000000
Si      -0.86472207       3.22804269      -1.43908214       0.00000000
Si       2.27885764       1.83457980       2.27307681       0.00000000
Si      -3.51678294       0.53978544      -1.30994615       0.00000000
