10
Lattice="16.28999089631971 0.0 0.0 0.0 16.28999089631971 0.0 0.0 0.0 34.54679606040008" Properties=species:S:1:pos:R:3:initial_magmoms:R:1 pbc="T T T"
Si      -0.14302620      -0.06498081       2.34697245       0.00000000
Si      -1.75295061       1.36498797      -0.80224615       0.00000000
Si      -0.28025316      -2.12042762      -1.01743826       0.00000000
Si       2.91119309       0.19942218       0.34823190       0.00000000
Si       1.89862949       0.95345370       2.47334470       0.00000000
Si       2.47817231       1.51172829      -1.60041577       0.00000000
Si       1.15100483       0.58248153      -3.34596271       0.00000000
Si       1.18267422      -1.77375667      -2.88925381       0.00000000
Si      -1.04612751       1.54976544      -3.08499607       0.00000000
Si      -0.04929354      -2.35075193       2.76049783       0.00000000
