10
Lattice="16.28999089631971 0.0 0.0 0.0 16.28999089631971 0.0 0.0 0.0 34.54679606040008" Properties=species:S:1:pos:R:3:initial_magmoms:R:1 pbc="T T T"
Si       1.35169533       1.36428750       1.39063023       0.00000000
Si      -1.36614456      -1.34982198       1.39187392       0.00000000
Si      -1.29632562       1.38961845      -1.50986166       0.00000000
Si       1.36130643      -1.40901984      -1.54545869       0.00000000
Si       2.71085148      -2.70223407       0.00480546       0.00000000
Si      -2.72404638      -2.69975799       0.02528136       0.00000000
Si       2.72392276       2.70238068       0.02311873       0.00000000
Si      -2.71326240       2.72789082       0.00663990       0.00000000
Si       2.70431208       0.00847080       2.75184385       0.00000000
Si      -0.00917127      -2.70513369       2.75174021       0.00000000
