10
Lattice="16.28999089631971 0.0 0.0 0.0 16.28999089631971 0.0 0.0 0.0 34.54679606040008" Properties=species:S:1:pos:R:3:initial_magmoms:R:1 pbc="T T T"
Si      -1.27943615       1.35431802      -1.53488046       0.00000000
Si       1.41143076      -1.34400645      -1.52683105       0.00000000
Si       1.38556224       1.43452998       1.47860370       0.00000000
Si      -2.02053829      -0.97334379       1.18022285       0.00000000
Si       2.63081871       2.68257204      -0.13414528       0.00000000
Si      -2.73079763       2.61117297      -0.15995176       0.00000000
Si       2.86423812      -2.55451635      -0.11307173       0.00000000
Si      -2.78088938      -2.72728809      -0.16129908       0.00000000
Si      -3.69760913       0.75509037       1.06331643       0.00000000
Si      -2.64794669      -0.00021177      -2.90625084       0.00000000
