10
Lattice="16.28999089631971 0.0 0.0 0.0 16.28999089631971 0.0 0.0 0.0 34.54679606040008" Properties=species:S:1:pos:R:3:initial_magmoms:R:1 pbc="T T T"
Si       1.50336730      -0.51803829      -1.73798119       0.00000000
Si       1.16185886      -1.03084749       1.78679584       0.00000000
Si       0.06612111       2.36667636       0.40008667       0.00000000
Si      -2.27261790      -0.76698207      -0.24624970       0.00000000
Si      -1.57789827       2.45941533       2.06237578       0.00000000
Si       3.43574738      -0.71715096       1.11703673       0.00000000
Si       3.55266071       0.43104969      -0.96689627       0.00000000
Si      -2.02601988      -2.90651067      -1.30148218       0.00000000
Si       0.70174781       0.51225534      -3.67398472       0.00000000
Si       0.14328684      -0.18075384       3.78560548       0.00000000
