10
Lattice="16.28999089631971 0.0 0.0 0.0 16.28999089631971 0.0 0.0 0.0 34.54679606040008" Properties=species:S:1:pos:R:3:initial_magmoms:R:1 pbc="T T T"
Si       1.75352076       1.08745524       1.11130196       0.00000000
Si       1.55504340      -1.33380891      -1.21259322       0.00000000
Si      -0.74054340       1.51382970      -1.70440168       0.00000000
Si      -3.13486389      -0.53424684       0.06266792       0.00000000
Si      -0.04634505       2.06584893       2.49500555       0.00000000
Si      -2.20520988      -2.45508219      -1.02227481       0.00000000
Si      -0.04561200      -3.03652116      -1.82700833       0.00000000
Si       2.42351512      -0.69905277       2.51898104       0.00000000
Si       3.34356715      -1.62782712       0.36477982       0.00000000
Si       0.18036288       0.55786734      -3.69378005       0.00000000
