10
Lattice="16.28999089631971 0.0 0.0 0.0 16.28999089631971 0.0 0.0 0.0 34.54679606040008" Properties=species:S:1:pos:R:3:initial_magmoms:R:1 pbc="T T T"
Si      -0.34042842       1.89638406      -1.45445547       0.00000000
Si       0.95635332       1.30740282       1.83265125       0.00000000
Si       1.79986581      -0.97839369      -1.38370360       0.00000000
Si      -1.59319458      -1.27503459       1.58065987       0.00000000
Si       0.04634505      -2.06584893      -2.49500555       0.00000000
Si       2.40703776       2.65354326       0.67397041       0.00000000
Si       2.46986017      -2.76490170       0.02397549       0.00000000
Si      -2.64541455       2.70112635       0.19004203       0.00000000
Si       1.51848864       3.38525748      -1.31889377       0.00000000
Si       2.42705380       0.03772764       3.11364025       0.00000000
