10
Lattice="16.28999089631971 0.0 0.0 0.0 16.28999089631971 0.0 0.0 0.0 34.54679606040008" Properties=species:S:1:pos:R:3:initial_magmoms:R:1 pbc="T T T"
Si       0.96817986      -2.09637639      -0.21267020       0.00000000
Si      -1.95235650      -0.05621679       1.44188043       0.00000000
Si       1.81464084       1.63255122       0.01879347       0.00000000
Si      -1.95628402       0.90034830      -1.39306578       0.00000000
Si      -0.43010487       1.69385049      -3.00229099       0.00000000
Si       1.71585828       2.19875904      -2.31273655       0.00000000
Si      -2.30242860       2.23127388       1.83118850       0.00000000
Si       1.54898352      -2.75151132       1.92401579       0.00000000
Si      -1.15073700      -1.08651042       3.37788397       0.00000000
Si      -0.62273412      -3.68875647      -0.83399467       0.00000000
