10
Lattice="16.28999089631971 0.0 0.0 0.0 16.28999089631971 0.0 0.0 0.0 34.54679606040008" Properties=species:S:1:pos:R:3:initial_magmoms:R:1 pbc="T T T"
Si       1.91617641      -1.00129743       0.84574059       0.00000000
Si      -1.99145250      -1.20930444       0.12537039       0.00000000
Si      -0.35284140       1.98078255       1.29792385       0.00000000
Si       0.17528040      -0.34705845      -2.36721688       0.00000000
Si      -3.63972357       0.41221845      -0.33669326       0.00000000
Si       2.50742196       0.00045612      -2.70774484       0.00000000
Si       3.56019579      -1.09403640      -0.81654853       0.00000000
Si      -1.56555045       1.06464924      -3.34178254       0.00000000
Si      -2.64963366       1.96610526       1.98626915       0.00000000
Si       1.46359134      -2.94399396       2.00917369       0.00000000
