10
Lattice="16.28999089631971 0.0 0.0 0.0 16.28999089631971 0.0 0.0 0.0 34.54679606040008" Properties=species:S:1:pos:R:3:initial_magmoms:R:1 pbc="T T T"
Si       1.64105460       1.15139349      -1.25809138       0.00000000
Si      -0.93415005      -1.53559314      -1.60048486       0.00000000
Si      -1.74275307       1.30233663       1.06096725       0.00000000
Si      -1.93992723      -3.15605718      -0.24023855       0.00000000
Si      -2.30977539      -2.28871242       1.95932263       0.00000000
Si      -2.38648500      -0.29103714      -2.96069662       0.00000000
Si       1.71286439      -1.06181478       3.23828029       0.00000000
Si       0.36038367       2.42782902      -2.93592656       0.00000000
Si       2.98957731       2.38047399       0.44810674       0.00000000
Si      -2.67103872       2.76229530      -0.46700385       0.00000000
