10
Lattice="16.28999089631971 0.0 0.0 0.0 16.28999089631971 0.0 0.0 0.0 34.54679606040008" Properties=species:S:1:pos:R:3:initial_magmoms:R:1 pbc="T T T"
Si      -0.04458573       2.35209681       0.22555616       0.00000000
Si       1.88188596      -1.00460430      -1.03723358       0.00000000
Si      -0.11691333      -1.14820065       2.08393300       0.00000000
Si      -2.04929340      -0.94908798      -0.77108492       0.00000000
Si       0.65042712      -2.61408888      -2.22495310       0.00000000
Si      -1.34755767      -3.19082004      -1.13275553       0.00000000
Si      -3.55266071      -0.43104969       0.96689627       0.00000000
Si      -1.34175843       2.79578754       2.13323130       0.00000000
Si       2.74789494      -2.52902250       0.51467846       0.00000000
Si       0.99535158       0.05919786       3.69671653       0.00000000
