10
Lattice="16.28999089631971 0.0 0.0 0.0 16.28999089631971 0.0 0.0 0.0 34.54679606040008" Properties=species:S:1:pos:R:3:initial_magmoms:R:1 pbc="T T T"
Si       0.46370137      -2.28719745       0.18731283       0.00000000
Si      -1.16185886       1.03084749      -1.78679584       0.00000000
Si       2.27388852       0.31369653      -0.66975911       0.00000000
Si      -1.01857202       0.85009365       1.99880964       0.00000000
Si       1.71295866      -2.13136731       2.22153296       0.00000000
Si       0.34150845       0.51280920      -3.52477703       0.00000000
Si      -1.57795433      -3.30563196       0.06094058       0.00000000
Si      -3.19234220       1.54756629       1.43901305       0.00000000
Si      -1.09573775       3.39752385      -1.38670917       0.00000000
Si       3.38615343       1.52109504       0.94302442       0.00000000
