10
Lattice="16.28999089631971 0.0 0.0 0.0 16.28999089631971 0.0 0.0 0.0 34.54679606040008" Properties=species:S:1:pos:R:3:initial_magmoms:R:1 pbc="T T T"
Si      -1.41397363       1.34542368      -1.25804646       0.00000000
Si      -1.35757439      -1.32670647       1.36368026       0.00000000
Si       1.35749457       1.38530160       1.36053650       0.00000000
Si       1.27827630      -1.50355071      -1.54886501       0.00000000
Si       0.30910275       2.06076645      -2.63021799       0.00000000
Si       2.16209025       0.39804615      -2.78357652       0.00000000
Si      -2.72044240      -0.08865018      -2.44612665       0.00000000
Si       2.72202642      -2.67696828      -0.02484952       0.00000000
Si      -0.00698841      -2.68260462       2.72078281       0.00000000
Si      -2.70042637      -2.70446580      -0.00645680       0.00000000
