10
Lattice="16.28999089631971 0.0 0.0 0.0 16.28999089631971 0.0 0.0 0.0 34.54679606040008" Properties=species:S:1:pos:R:3:initial_magmoms:R:1 pbc="T T T"
Si      -1.33832843       0.66142287       1.79356701       0.00000000
Si       0.35007210      -2.28749067      -0.38930806       0.00000000
Si      -0.96771464       0.54778383      -2.11143226       0.00000000
Si       1.99438470       1.08242163       0.78732192       0.00000000
Si       0.34614458      -1.33092558      -3.22425428       0.00000000
Si      -1.09594952       3.01492062       1.69113571       0.00000000
Si       2.30242860      -2.23127388      -1.83118850       0.00000000
Si      -0.28555460      -0.43306965       3.68476333       0.00000000
Si       3.29110128       1.48390497      -1.12622618       0.00000000
Si       1.29977910       3.26798577       1.44523147       0.00000000
