10
Lattice="16.28999089631971 0.0 0.0 0.0 16.28999089631971 0.0 0.0 0.0 34.54679606040008" Properties=species:S:1:pos:R:3:initial_magmoms:R:1 pbc="T T T"
Si      -1.34363178      -1.36432008      -1.38598369       0.00000000
Si       1.37178090       1.35089712      -1.38615642       0.00000000
Si       1.30233663      -1.49838678       1.35247327       0.00000000
Si      -1.48538736       1.32913368       1.63489349       0.00000000
Si      -2.70399502       2.69708710       0.00131278       0.00000000
Si      -2.71075374      -2.71406061       0.00038001       0.00000000
Si       2.72880306       2.71017612      -0.00438745       0.00000000
Si      -2.69883272      -0.00926901      -2.74875191       0.00000000
Si       0.01523115       2.70386211      -2.74913193       0.00000000
Si       0.01524744      -2.72510523      -2.74851008       0.00000000
