10
Lattice="16.28999089631971 0.0 0.0 0.0 16.28999089631971 0.0 0.0 0.0 34.54679606040008" Properties=species:S:1:pos:R:3:initial_magmoms:R:1 pbc="T T T"
Si      -1.35774677      -1.35707103      -1.35651525       0.00000000
Si       1.35687881       1.35773834      -1.35699891       0.00000000
Si       1.35520094      -1.35505107       1.36276823       0.00000000
Si      -1.35922524       1.35797847       1.36010812       0.00000000
Si       2.71406387       2.71313112      -0.00038001       0.00000000
Si      -0.00061902       2.71497189      -2.71427419       0.00000000
Si       2.71510643       0.00008145      -2.71434328       0.00000000
Si      -0.00022643      -2.71534752      -2.71420510       0.00000000
Si       2.71408016      -2.71583622       0.00024183       0.00000000
Si      -2.71574241       0.00084708      -2.71430874       0.00000000
