10
Lattice="16.28999089631971 0.0 0.0 0.0 16.28999089631971 0.0 0.0 0.0 34.54679606040008" Properties=species:S:1:pos:R:3:initial_magmoms:R:1 pbc="T T T"
Si       0.96591555      -1.32455619      -1.81643701       0.00000000
Si       2.45022777       0.87011406       0.30218099       0.00000000
Si      -1.78735835       1.40887323      -1.38121623       0.00000000
Si      -0.91460205      -1.45036386       2.19631379       0.00000000
Si       2.44050264      -2.93174388      -0.75481337       0.00000000
Si      -3.06407126      -2.03341554       1.40895732       0.00000000
Si       2.19348108       3.09067956       1.14647061       0.00000000
Si      -2.80395697       2.79332775       0.37054914       0.00000000
Si       2.29014594      -0.04461831      -3.41419267       0.00000000
Si       3.29945805      -0.29333403       2.52851596       0.00000000
