10
Lattice="10.86 0.0 0.0 0.0 10.86 0.0 0.0 0.0 10.86" Properties=species:S:1:pos:R:3:initial_magmoms:R:1 pbc="T T T"
Si      -1.17772356      -1.20546000       1.49165358       0.00000000
Si       1.53727644      -1.20546000      -1.22334642       0.00000000
Si      -1.40600076       1.58387670      -1.00471290       0.00000000
Si       1.53727644       1.50954000       1.49165358       0.00000000
Si      -2.54138118       0.37653792      -2.52048654       0.00000000
Si      -2.53522356      -2.56296000       0.13415358       0.00000000
Si       0.17977644      -2.56296000      -2.58084642       0.00000000
Si       0.17977644      -2.56296000       2.84915358       0.00000000
Si      -2.73825126       0.24838992       2.69999148       0.00000000
Si       2.89477644      -2.56296000       0.13415358       0.00000000
