10
Lattice="10.86 0.0 0.0 0.0 10.86 0.0 0.0 0.0 10.86" Properties=species:S:1:pos:R:3:initial_magmoms:R:1 pbc="T T T"
Si      -0.92020038      -1.48541994       1.38783198       0.00000000
Si      -1.13549988       1.36620972      -1.49727906       0.00000000
Si       1.57950012       1.36620972       1.21772094       0.00000000
Si       1.57950012      -1.34879028      -1.49727906       0.00000000
Si      -2.34528216      -2.55606390      -0.08535960       0.00000000
Si      -2.49131658      -0.13114536       2.60250126       0.00000000
Si      -2.49299988       2.72370972      -0.13977906       0.00000000
Si       0.22200012       2.72370972       2.57522094       0.00000000
Si      -2.49299988       0.00870972      -2.85477906       0.00000000
Si       2.91771276      -2.54754966      -0.20112720       0.00000000
