10
Lattice="10.86 0.0 0.0 0.0 10.86 0.0 0.0 0.0 10.86" Properties=species:S:1:pos:R:3:initial_magmoms:R:1 pbc="T T T"
Si      -1.38815778       1.42188894      -1.22222784       0.00000000
Si      -1.38815778      -1.29311106       1.49277216       0.00000000
Si       1.32684222       1.42188894       1.49277216       0.00000000
Si       2.69514792      -2.36804472      -0.09308106       0.00000000
Si      -2.74397448      -0.07546614      -2.55244752       0.00000000
Si      -0.03065778       2.77938894      -2.57972784       0.00000000
Si      -2.74043412      -2.65161018       0.24740166       0.00000000
Si       2.68434222       2.77938894       0.13527216       0.00000000
Si      -0.03065778      -2.65061106       2.85027216       0.00000000
Si       2.84846940      -0.05414796      -2.66174256       0.00000000
