10
Lattice="10.86 0.0 0.0 0.0 10.86 0.0 0.0 0.0 10.86" Properties=species:S:1:pos:R:3:initial_magmoms:R:1 pbc="T T T"
Si       1.34669430       1.07493366       1.58585322       0.00000000
Si       1.34669430      -1.64006634      -1.12914678       0.00000000
Si      -1.36830570      -1.64006634       1.58585322       0.00000000
Si       0.15332148       2.31389676      -2.56866150       0.00000000
Si      -2.69514792       2.36804472       0.09308106       0.00000000
Si       2.70419430       2.43243366       0.22835322       0.00000000
Si       2.70419430      -0.28256634      -2.48664678       0.00000000
Si      -0.01080570       2.43243366       2.94335322       0.00000000
Si       2.70419430      -0.28256634       2.94335322       0.00000000
Si      -2.72580570      -0.28256634       2.94335322       0.00000000
