10
Lattice="16.28999089631971 0.0 0.0 0.0 16.28999089631971 0.0 0.0 0.0 34.3005442915855" Properties=species:S:1:pos:R:3:initial_magmoms:R:1 pbc="T T T"
Si       0.00791694       2.32963194       0.32036726       0.00000000
Si       0.95262291      -0.33629076      -2.12588032       0.00000000
Si       1.43049006      -0.61193385       1.77632328       0.00000000
Si      -1.89048871      -1.51531209       0.22007242       0.00000000
Si      -1.78959334       2.38686523       1.82832293       0.00000000
Si      -0.17146854      -2.31997293      -2.67678167       0.00000000
Si      -0.02985957      -0.48317769       3.60618974       0.00000000
Si      -2.09996996       0.37004364       2.99111204       0.00000000
Si      -2.38421255      -1.94183316      -2.04448509       0.00000000
Si       3.14120070      -1.09538847      -1.76665052       0.00000000
