10
Lattice="16.28999089631971 0.0 0.0 0.0 16.28999089631971 0.0 0.0 0.0 34.3005442915855" Properties=species:S:1:pos:R:3:initial_magmoms:R:1 pbc="T T T"
Si      -0.35517087      -1.91409129       1.24758009       0.00000000
Si      -2.07011039       0.85322133      -0.61507770       0.00000000
Si       1.46034963      -0.12875616      -1.82986646       0.00000000
Si       0.89031366       1.32136335       1.80911462       0.00000000
Si       2.86687710       1.61956809      -1.08979750       0.00000000
Si      -2.70596937       1.99462905       1.37301725       0.00000000
Si       0.02985957       0.48317769      -3.60618974       0.00000000
Si       1.59506793      -3.16908918       1.22473592       0.00000000
Si      -1.75973377       2.87004292      -1.77786681       0.00000000
Si       3.00288231       2.01533364       1.22017394       0.00000000
