10
Lattice="16.28999089631971 0.0 0.0 0.0 16.28999089631971 0.0 0.0 0.0 34.3005442915855" Properties=species:S:1:pos:R:3:initial_magmoms:R:1 pbc="T T T"
Si      -1.08418095      -1.40489847       1.70040725       0.00000000
Si      -2.16639896       1.18798083      -0.82256181       0.00000000
Si       1.57819149       1.36497168       1.64270685       0.00000000
Si       0.26365365      -1.22649039      -2.80228743       0.00000000
Si       1.50913818       2.00896425      -2.24075291       0.00000000
Si      -2.57164433      -2.61441468       0.21204608       0.00000000
Si      -3.75537347      -0.71959446      -0.90639239       0.00000000
Si      -2.39989843       0.01003464       3.24518801       0.00000000
Si       0.61882452       0.68760090      -4.04986753       0.00000000
Si       3.27567465       2.60372844       0.45921594       0.00000000
