10
Lattice="16.28999089631971 0.0 0.0 0.0 16.28999089631971 0.0 0.0 0.0 34.3005442915855" Properties=species:S:1:pos:R:3:initial_magmoms:R:1 pbc="T T T"
Si       0.35517087       1.91409129      -1.24758009       0.00000000
Si       1.95023880      -1.25499789      -0.02284418       0.00000000
Si      -1.43262242      -1.64498049      -0.85106558       0.00000000
Si      -0.26365365       1.22649039       2.80228743       0.00000000
Si       1.24548453       3.23545464       0.56153452       0.00000000
Si      -1.73929144      -2.90012499       1.37853965       0.00000000
Si      -0.09198963      -2.64393216      -2.54674824       0.00000000
Si       2.25046350      -2.02984803      -2.20333099       0.00000000
Si      -1.71493952       2.76731262      -1.86265780       0.00000000
Si       0.77199939      -3.55454316       1.05714337       0.00000000
