10
Lattice="16.28999089631971 0.0 0.0 0.0 16.28999089631971 0.0 0.0 0.0 34.3005442915855" Properties=species:S:1:pos:R:3:initial_magmoms:R:1 pbc="T T T"
Si       1.23937578      -1.41068336       1.40889221       0.00000000
Si      -1.24009254      -1.52753515      -1.39374650       0.00000000
Si      -1.49209884       1.31019004       1.39527146       0.00000000
Si       1.78455321       0.94825882      -1.43758262       0.00000000
Si      -0.93610485       0.68032090      -3.04013924       0.00000000
Si       2.63880081       2.65455487       0.01468750       0.00000000
Si       2.58088986      -0.05245054       2.78109312       0.00000000
Si      -0.13613553       2.67102406       2.78105881       0.00000000
Si       2.84697072      -2.62779433      -0.05932282       0.00000000
Si      -3.00042252       2.48355874      -0.11795621       0.00000000
