10
Lattice="16.28999089631971 0.0 0.0 0.0 16.28999089631971 0.0 0.0 0.0 34.3005442915855" Properties=species:S:1:pos:R:3:initial_magmoms:R:1 pbc="T T T"
Si       1.33154460      -1.42650945       1.32647139       0.00000000
Si       1.36904418       1.34387287      -1.37809374       0.00000000
Si      -1.35000117      -1.36903833      -1.37939716       0.00000000
Si      -1.31890356       1.38466303       1.52894762       0.00000000
Si      -2.70177795       2.70586348       0.00888385       0.00000000
Si       2.74401792       2.68869382       0.01083898       0.00000000
Si      -2.70472644      -2.73238101      -0.01845370       0.00000000
Si       0.00902466       2.70113938      -2.73848839       0.00000000
Si      -2.70474273      -0.01485485      -2.73900289       0.00000000
Si       2.71788876      -2.74251339      -0.03076761       0.00000000
