10
Lattice="16.28999089631971 0.0 0.0 0.0 16.28999089631971 0.0 0.0 0.0 34.3005442915855" Properties=species:S:1:pos:R:3:initial_magmoms:R:1 pbc="T T T"
Si       0.82901439       0.01276484       2.16827582       0.00000000
Si       1.83353724      -1.01464287      -1.10866281       0.00000000
Si      -2.02673664      -1.19257854       0.34619559       0.00000000
Si      -0.57524877       2.18009396      -0.84986506       0.00000000
Si       1.24320393      -0.11812368      -3.19156453       0.00000000
Si      -1.10167641       0.52279660       3.39287454       0.00000000
Si       1.71203013      -2.17098852       2.36492095       0.00000000
Si       0.67590468       2.14883345      -2.87524473       0.00000000
Si       3.85991550      -0.20967022      -0.21623075       0.00000000
Si      -2.90773242      -0.70692477       2.49505729       0.00000000
