10
Lattice="16.28999089631971 0.0 0.0 0.0 16.28999089631971 0.0 0.0 0.0 34.3005442915855" Properties=species:S:1:pos:R:3:initial_magmoms:R:1 pbc="T T T"
Si       0.48467637      -2.22604642       0.38485232       0.00000000
Si      -1.91889684       0.54450954       1.28579092       0.00000000
Si       1.86621498       1.29806865       0.68728039       0.00000000
Si      -0.52714440       0.51655590      -2.28174208       0.00000000
Si      -2.64872142       2.17717479      -0.30729875       0.00000000
Si       1.13230161      -2.37122779       2.59250519       0.00000000
Si      -1.18381059       2.79705816      -2.12869297       0.00000000
Si       2.50294221       2.48324760      -1.16038806       0.00000000
Si      -1.32137964      -3.45576779      -0.51296493       0.00000000
Si       2.41536717      -2.73607817      -0.83974639       0.00000000
