10
Lattice="16.28999089631971 0.0 0.0 0.0 16.28999089631971 0.0 0.0 0.0 34.3005442915855" Properties=species:S:1:pos:R:3:initial_magmoms:R:1 pbc="T T T"
Si       2.22725025       0.87552234      -0.61425449       0.00000000
Si      -0.48599586       2.49233742       0.02651434       0.00000000
Si       0.04204449      -2.10864995      -1.64251678       0.00000000
Si      -0.30398769      -2.20785605       1.64639275       0.00000000
Si       2.72065806       0.26793792       1.60255663       0.00000000
Si       0.93610485      -0.68032090       3.04013924       0.00000000
Si       1.35778779       2.89968516      -1.36101206       0.00000000
Si      -2.46884724       0.96563862      -2.41359345       0.00000000
Si      -2.07052416      -2.80262024      -1.05357611       0.00000000
Si      -3.47200173      -0.91609259      -0.84513158       0.00000000
