10
Lattice="16.28999089631971 0.0 0.0 0.0 16.28999089631971 0.0 0.0 0.0 34.3005442915855" Properties=species:S:1:pos:R:3:initial_magmoms:R:1 pbc="T T T"
Si       1.53947016      -0.24206940      -1.76020202       0.00000000
Si      -1.00695006       2.12211459      -0.26994543       0.00000000
Si      -1.81068237      -1.37026593      -0.69211677       0.00000000
Si       0.70571538       0.09459603       2.30071029       0.00000000
Si      -1.53927468       1.99562274      -2.58736010       0.00000000
Si       0.57407589       1.22021874      -3.37112798       0.00000000
Si       2.24650503       1.93461669       2.16450276       0.00000000
Si      -2.78342343       0.03818376      -2.45996781       0.00000000
Si      -2.82411585       2.20993398       1.31659283       0.00000000
Si      -3.12091965      -1.83945051       1.24812890       0.00000000
