10
Lattice="16.28999089631971 0.0 0.0 0.0 16.28999089631971 0.0 0.0 0.0 34.3005442915855" Properties=species:S:1:pos:R:3:initial_magmoms:R:1 pbc="T T T"
Si      -0.49554180       1.27899306       1.87367346       0.00000000
Si       1.84378365       0.40734774      -1.38752639       0.00000000
Si      -1.99860381       0.44856144      -1.17431409       0.00000000
Si       0.48599586      -2.49233742      -0.02651434       0.00000000
Si       2.71324611      -1.61681508      -0.64076883       0.00000000
Si      -1.57832181      -0.68909958       2.89566870       0.00000000
Si      -1.98285138      -1.52669880      -2.44010778       0.00000000
Si      -1.68604758       2.52268569      -2.37164386       0.00000000
Si       1.13806827       0.31275171      -3.68823669       0.00000000
Si      -3.15955953      -2.10906630       1.20285216       0.00000000
