10
Lattice="16.28999089631971 0.0 0.0 0.0 16.28999089631971 0.0 0.0 0.0 34.3005442915855" Properties=species:S:1:pos:R:3:initial_magmoms:R:1 pbc="T T T"
Si       0.00663003       0.81151404       2.16995655       0.00000000
Si      -1.65931406      -1.41268087      -0.82568316       0.00000000
Si       1.96579575      -1.28208394       0.08870126       0.00000000
Si      -0.94912219       1.69985661      -1.43266593       0.00000000
Si      -2.93564438       0.39950736      -1.66271981       0.00000000
Si       1.36827855       2.71819338       1.88745711       0.00000000
Si      -0.82449229      -2.24431795      -2.88282516       0.00000000
Si       0.72236376       2.45054868      -2.85878046       0.00000000
Si       1.59865173      -3.16440973       1.58214779       0.00000000
Si       3.77185176      -0.05236258       0.98651851       0.00000000
