10
Lattice="16.28999089631971 0.0 0.0 0.0 16.28999089631971 0.0 0.0 0.0 34.3005442915855" Properties=species:S:1:pos:R:3:initial_magmoms:R:1 pbc="T T T"
Si      -1.36164852      -1.90667934       0.28249944       0.00000000
Si       0.07737750       0.93776643       2.16776131       0.00000000
Si       1.91889684      -0.54450954      -1.28579092       0.00000000
Si      -0.72982458       1.63266525      -1.59308967       0.00000000
Si      -1.36827855      -2.71819338      -1.88745711       0.00000000
Si      -2.89882342       0.92072709      -2.17071116       0.00000000
Si       2.40357321      -2.77055596      -0.90093860       0.00000000
Si       1.32152625       2.89520541       2.04036902       0.00000000
Si      -3.43009082      -1.22619717       1.06870266       0.00000000
Si       1.39175244      -0.02795364      -3.56753300       0.00000000
