10
Lattice="16.28999089631971 0.0 0.0 0.0 16.28999089631971 0.0 0.0 0.0 34.3005442915855" Properties=species:S:1:pos:R:3:initial_magmoms:R:1 pbc="T T T"
Si      -0.31706856      -2.07974430       1.02095627       0.00000000
Si      -2.18857779       0.75909771      -0.35922980       0.00000000
Si       0.99761589      -0.35880354      -2.13363225       0.00000000
Si       1.32864498       1.45520199       1.35737620       0.00000000
Si       3.21633018       0.67497615       0.26064998       0.00000000
Si       2.79832878       1.17735975      -1.98281267       0.00000000
Si      -0.46042056      -1.49783292       3.27241096       0.00000000
Si      -3.31266924      -1.22458446      -0.91013115       0.00000000
Si      -1.82143377       2.64142350      -1.85267633       0.00000000
Si      -3.14120070       1.09538847       1.76665052       0.00000000
