10
Lattice="16.28999089631971 0.0 0.0 0.0 16.28999089631971 0.0 0.0 0.0 34.3005442915855" Properties=species:S:1:pos:R:3:initial_magmoms:R:1 pbc="T T T"
Si      -1.46034963       0.12875616       1.82986646       0.00000000
Si       1.25029008      -1.98128754      -0.27056284       0.00000000
Si      -1.43049006       0.61193385      -1.77632328       0.00000000
Si       1.40652747       1.74832425       0.74006896       0.00000000
Si       3.43842804       0.81728559       0.12663768       0.00000000
Si      -1.42257312       2.94156579      -1.45595602       0.00000000
Si       0.71068383       3.54135219      -0.62499057       0.00000000
Si       3.41783748      -1.48584348       0.48295193       0.00000000
Si      -3.32097877      -0.90337824      -1.55625086       0.00000000
Si       1.39364208      -2.56319892      -2.52201753       0.00000000
