10
Lattice="16.28999089631971 0.0 0.0 0.0 16.28999089631971 0.0 0.0 0.0 34.3005442915855" Properties=species:S:1:pos:R:3:initial_magmoms:R:1 pbc="T T T"
Si       1.23619923      -1.26629989      -1.57669400       0.00000000
Si       1.13891535       1.50990381       1.48425398       0.00000000
Si      -1.01582811      -1.88769497       1.08887139       0.00000000
Si      -1.46432439       1.41335298      -1.54393696       0.00000000
Si       2.61956232      -2.48704105      -0.17253183       0.00000000
Si       0.80233137      -3.50693468       0.89280937       0.00000000
Si       2.50797582       2.79726993      -0.05700754       0.00000000
Si       2.58812262       0.06990039      -2.93681424       0.00000000
Si      -2.71252935       2.84301225      -0.09388064       0.00000000
Si      -0.12896793      -2.64609912      -2.93022854       0.00000000
