10
Lattice="16.28999089631971 0.0 0.0 0.0 16.28999089631971 0.0 0.0 0.0 34.3005442915855" Properties=species:S:1:pos:R:3:initial_magmoms:R:1 pbc="T T T"
Si       1.32499602       1.90444761       0.50497290       0.00000000
Si       1.43532819      -1.73839501      -0.78459109       0.00000000
Si      -1.27104354       0.26055855      -2.06455091       0.00000000
Si      -2.26256697       0.54467244       1.79724662       0.00000000
Si      -2.75597478       1.15225686      -0.41956449       0.00000000
Si       0.78542235      -2.24615384       1.86673957       0.00000000
Si       1.40919903      -0.34280513       3.21616973       0.00000000
Si       3.03090111       0.74028276       1.87013532       0.00000000
Si       1.56742380       2.81313639      -1.75279309       0.00000000
Si       0.13162320       1.77363891      -3.30307566       0.00000000
