10
Lattice="16.28999089631971 0.0 0.0 0.0 16.28999089631971 0.0 0.0 0.0 34.3005442915855" Properties=species:S:1:pos:R:3:initial_magmoms:R:1 pbc="T T T"
Si       1.33635015       0.28556370       1.87219335       0.00000000
Si      -0.72513306       2.25266265      -0.18505154       0.00000000
Si      -1.54078965      -1.84002066       0.13620754       0.00000000
Si       1.31779584       0.54379278      -1.99094191       0.00000000
Si      -0.49127382       1.20876687       3.17928493       0.00000000
Si      -1.94300604       2.42647695       1.82485858       0.00000000
Si      -1.99521549       2.11996431      -2.18508309       0.00000000
Si      -2.24650503      -1.93461669      -2.16450276       0.00000000
Si       3.59085357       0.21154194      -1.01663440       0.00000000
Si       3.32436546       1.44451575       1.09830404       0.00000000
