10
Lattice="16.28999089631971 0.0 0.0 0.0 16.28999089631971 0.0 0.0 0.0 34.3005442915855" Properties=species:S:1:pos:R:3:initial_magmoms:R:1 pbc="T T T"
Si      -0.83142531       1.78012233      -1.29594389       0.00000000
Si       1.22790762       1.48517559       1.38940405       0.00000000
Si      -1.49144724      -1.27091322       1.38390910       0.00000000
Si       1.24186815      -1.61743410      -1.36063475       0.00000000
Si       2.71999017       2.52426582      -0.27958389       0.00000000
Si       2.53483803       0.10055817       2.77263944       0.00000000
Si       1.15659000       2.93907438      -2.06983320       0.00000000
Si      -2.34569484      -2.97720927      -0.06836102       0.00000000
Si      -2.65904928       2.70332550       0.01114768       0.00000000
Si      -0.18217107      -2.62238049       2.78468923       0.00000000
