10
Lattice="16.28999089631971 0.0 0.0 0.0 16.28999089631971 0.0 0.0 0.0 34.3005442915855" Properties=species:S:1:pos:R:3:initial_magmoms:R:1 pbc="T T T"
Si      -1.16103717      -1.49705100      -1.38484550       0.00000000
Si       1.31238756      -1.38170151       1.38843536       0.00000000
Si      -1.40186853       1.33193556       1.39097360       0.00000000
Si       1.06872174       1.58416992      -1.44421978       0.00000000
Si       0.66658680      -2.42025417      -2.69193707       0.00000000
Si       2.67071292       2.62861956      -0.02703570       0.00000000
Si      -2.61276939      -0.27934092      -2.73927185       0.00000000
Si      -2.45123775       2.93122260      -0.00515537       0.00000000
Si       2.66297517      -0.02867040       2.75439013       0.00000000
Si       2.72591973      -2.71520091      -0.00658914       0.00000000
