10
Lattice="16.28999089631971 0.0 0.0 0.0 16.28999089631971 0.0 0.0 0.0 34.3005442915855" Properties=species:S:1:pos:R:3:initial_magmoms:R:1 pbc="T T T"
Si       1.35690813      -1.35711990      -1.35693029       0.00000000
Si      -1.35775521      -1.35638685       1.35717039       0.00000000
Si      -1.35777150       1.35772263      -1.35741050       0.00000000
Si       1.35791811       1.36047564       1.35648438       0.00000000
Si       0.00490329       2.71101438       2.71300307       0.00000000
Si       0.00057015      -2.71192662      -2.71396348       0.00000000
Si      -0.00004887       2.71422351      -2.71461519       0.00000000
Si      -2.71461447      -0.00071676      -2.71423789       0.00000000
Si       2.71428867      -2.71497285       0.00048021       0.00000000
Si       2.71459818       2.71503801      -0.00058311       0.00000000
