10
Lattice="16.28999089631971 0.0 0.0 0.0 16.28999089631971 0.0 0.0 0.0 34.3005442915855" Properties=species:S:1:pos:R:3:initial_magmoms:R:1 pbc="T T T"
Si       1.91827782      -0.09005112       1.29985415       0.00000000
Si      -1.41635034       1.35371529       1.32870093       0.00000000
Si       0.73472787       0.78245757      -2.13771402       0.00000000
Si      -0.51771249      -2.33311896       0.41736926       0.00000000
Si       0.78188742      -0.83080629       3.30417328       0.00000000
Si       3.37132953      -1.05269238      -0.38097636       0.00000000
Si       3.11531589       0.89389746      -1.81930189       0.00000000
Si      -3.58389774       0.85827123       0.57518615       0.00000000
Si      -1.06186365      -3.10114359      -1.79244454       0.00000000
Si      -0.79677648       0.95690718       3.56557787       0.00000000
