10
Lattice="16.28999089631971 0.0 0.0 0.0 16.28999089631971 0.0 0.0 0.0 34.3005442915855" Properties=species:S:1:pos:R:3:initial_magmoms:R:1 pbc="T T T"
Si      -1.21787298       0.17381430       2.00991012       0.00000000
Si      -1.27008243      -0.13269834      -2.00003155       0.00000000
Si       0.72513306      -2.25266265       0.18505154       0.00000000
Si       1.94214267       1.37451762      -0.55186177       0.00000000
Si       0.36347877       3.16223109      -0.29045717       0.00000000
Si       2.04292890      -1.70886987      -1.80589037       0.00000000
Si       0.64254276      -0.12779505      -3.43866579       0.00000000
Si       2.06148321      -1.96709895       2.05724489       0.00000000
Si       0.23385924      -1.04389578       3.36433647       0.00000000
Si      -1.73297907       3.18883266       1.10166550       0.00000000
