10
Lattice="16.28999089631971 0.0 0.0 0.0 16.28999089631971 0.0 0.0 0.0 34.3005442915855" Properties=species:S:1:pos:R:3:initial_magmoms:R:1 pbc="T T T"
Si       1.49628537       0.47742732       1.84790856       0.00000000
Si       1.66022793       1.04303241      -1.49495576       0.00000000
Si      -1.13875245      -1.79668926      -1.36910699       0.00000000
Si      -2.27776554       0.60582510       1.10890292       0.00000000
Si       1.40353011      -1.99651869       0.92621812       0.00000000
Si      -0.12927744      -2.54337399       2.63013291       0.00000000
Si      -2.37747663      -0.34016778      -2.86299943       0.00000000
Si      -2.30487210       2.88481239       0.62564228       0.00000000
Si       0.32602806       2.36845197      -2.88625521       0.00000000
Si       2.61881298       2.87937153      -0.40790230       0.00000000
