10
Lattice="16.28999089631971 0.0 0.0 0.0 16.28999089631971 0.0 0.0 0.0 34.3005442915855" Properties=species:S:1:pos:R:3:initial_magmoms:R:1 pbc="T T T"
Si      -1.33419987       1.32541956      -1.39129946       0.00000000
Si       0.95858505       1.83633912       1.08705346       0.00000000
Si       1.38838041      -1.37370312      -1.36396191       0.00000000
Si      -1.66022793      -1.04303241       1.49495576       0.00000000
Si      -0.16394256      -0.56560509       3.34286431       0.00000000
Si       1.84327866       0.66653793       2.97039450       0.00000000
Si      -0.85957443       3.45557882       1.28311548       0.00000000
Si      -2.72054403       2.64142350      -0.03406046       0.00000000
Si      -2.67879276      -0.02267568      -2.74281026       0.00000000
Si       0.02728575       2.69717468      -2.73598444       0.00000000
