10
Lattice="16.28999089631971 0.0 0.0 0.0 16.28999089631971 0.0 0.0 0.0 34.3005442915855" Properties=species:S:1:pos:R:3:initial_magmoms:R:1 pbc="T T T"
Si      -1.36500426      -1.34006181      -1.34784407       0.00000000
Si       1.35992178      -1.35463875       1.35943423       0.00000000
Si      -1.35521397       1.35890854       1.36084055       0.00000000
Si       1.35749457       1.38233356      -1.37633755       0.00000000
Si      -2.55096513       0.10982555      -2.79999273       0.00000000
Si       2.58694715      -0.03519780      -2.80544995       0.00000000
Si      -0.07289775      -2.67886836      -2.72031938       0.00000000
Si      -2.70860346       2.71202110      -0.00096042       0.00000000
Si      -2.71450044      -2.71281672       0.00418467       0.00000000
Si      -2.71278999       0.00128365       2.71667323       0.00000000
