10
Lattice="16.28999089631971 0.0 0.0 0.0 16.28999089631971 0.0 0.0 0.0 34.3005442915855" Properties=species:S:1:pos:R:3:initial_magmoms:R:1 pbc="T T T"
Si       1.55232297      -1.21847571       1.26256944       0.00000000
Si       1.34848620       0.91196307      -1.71142661       0.00000000
Si      -1.90438245      -1.24709724      -0.66433331       0.00000000
Si      -0.69027246       1.65574818       1.55210050       0.00000000
Si       2.83698495      -2.31826248      -0.38341170       0.00000000
Si       2.89746972       2.25427536      -0.48682790       0.00000000
Si      -2.95454988      -1.88131581       1.39037334       0.00000000
Si      -1.26964260       0.57296817       3.54475743       0.00000000
Si       2.77654905       0.24120603       2.67911411       0.00000000
Si      -3.01575141      -0.05997978      -2.42542714       0.00000000
