10
Lattice="16.28999089631971 0.0 0.0 0.0 16.28999089631971 0.0 0.0 0.0 34.3005442915855" Properties=species:S:1:pos:R:3:initial_magmoms:R:1 pbc="T T T"
Si       1.35348627       1.34281728       1.39262346       0.00000000
Si      -1.36008468      -1.37375199       1.39313797       0.00000000
Si       1.55764070      -1.24237314      -1.40571255       0.00000000
Si      -1.43837442       1.33768593      -1.56149885       0.00000000
Si      -2.71168227       2.68739388       0.01836109       0.00000000
Si       0.21936996      -2.42737290      -2.95560550       0.00000000
Si       2.72455856       2.70101232      -0.00556698       0.00000000
Si      -2.70554094      -2.72657133       0.01731492       0.00000000
Si      -0.00250913       2.70322776       2.75452733       0.00000000
Si       2.71165688      -2.74825332       0.01901966       0.00000000
