10
Lattice="16.28999089631971 0.0 0.0 0.0 16.28999089631971 0.0 0.0 0.0 34.3005442915855" Properties=species:S:1:pos:R:3:initial_magmoms:R:1 pbc="T T T"
Si      -1.35402480       1.35609363      -1.36344740       0.00000000
Si       1.36195803      -1.36068741      -1.36234978       0.00000000
Si      -1.35936792      -1.36282140       1.37528109       0.00000000
Si       1.35927018       1.37119446       1.37744203       0.00000000
Si      -2.71407690       2.70998811      -0.00188653       0.00000000
Si      -2.71068858      -2.71797021      -0.00401317       0.00000000
Si       2.71611315      -2.71306692      -0.00607120       0.00000000
Si      -2.71171485      -0.00158013      -2.71938297       0.00000000
Si       0.00356751       2.71366965      -2.71903997       0.00000000
Si       2.72145495       2.71345788      -0.00243534       0.00000000
