10
Lattice="16.28999089631971 0.0 0.0 0.0 16.28999089631971 0.0 0.0 0.0 34.3005442915855" Properties=species:S:1:pos:R:3:initial_magmoms:R:1 pbc="T T T"
Si       1.55357730      -1.13619492       1.33909400       0.00000000
Si       0.97305057       0.81441855      -2.03762497       0.00000000
Si      -1.37230218      -1.80416637      -0.80976770       0.00000000
Si      -1.57227822       0.95174325       1.63785191       0.00000000
Si      -1.82030976      -1.16343180       2.74589731       0.00000000
Si      -3.28595364      -0.57104595      -1.41651037       0.00000000
Si      -1.95167232      -2.88694638       1.18288923       0.00000000
Si      -3.52139301       1.05904548       0.31323275       0.00000000
Si       0.41159943      -1.33151202       3.44473699       0.00000000
Si      -0.96128919       1.87493013      -3.09346492       0.00000000
