10
Lattice="16.28999089631971 0.0 0.0 0.0 16.28999089631971 0.0 0.0 0.0 34.3005442915855" Properties=species:S:1:pos:R:3:initial_magmoms:R:1 pbc="T T T"
Si      -1.35633798      -1.35594702      -1.35737620       0.00000000
Si      -1.35754344       1.35721764       1.35651868       0.00000000
Si       1.35742941      -1.35754344       1.35792501       0.00000000
Si       1.35733167       1.35920502      -1.35706749       0.00000000
Si      -2.71422351       0.00265527       2.71358618       0.00000000
Si      -0.00164529       2.71536381      -2.71290017       0.00000000
Si      -0.00016290      -2.71511946       2.71351758       0.00000000
Si       0.00131949       2.71546155       2.71413499       0.00000000
Si      -2.71507059       2.71485882      -0.00030871       0.00000000
Si       2.71507059       2.71500543      -0.00017150       0.00000000
