10
Lattice="16.28999089631971 0.0 0.0 0.0 16.28999089631971 0.0 0.0 0.0 34.3005442915855" Properties=species:S:1:pos:R:3:initial_magmoms:R:1 pbc="T T T"
Si      -1.23629697       1.28093157      -1.64484922       0.00000000
Si       1.48791135       1.39243662       1.34293566       0.00000000
Si      -1.65969036      -0.95376321       1.76569011       0.00000000
Si       1.47069282      -1.43475804      -1.63675429       0.00000000
Si      -2.43830349      -2.59875999      -0.18721248       0.00000000
Si       2.70152450       2.50589070      -0.36108203       0.00000000
Si      -2.56059252       2.78928084      -0.27107735       0.00000000
Si      -2.59141320      -0.08415414      -3.03021468       0.00000000
Si       0.12417867       2.63185319      -3.03374764       0.00000000
Si       3.27331979       0.16498512       2.39239570       0.00000000
