10
Lattice="16.28999089631971 0.0 0.0 0.0 16.28999089631971 0.0 0.0 0.0 34.3005442915855" Properties=species:S:1:pos:R:3:initial_magmoms:R:1 pbc="T T T"
Si       1.25997286      -1.34415306      -1.46017499       0.00000000
Si       1.33827074       1.18499976       1.54989295       0.00000000
Si      -0.74934882       1.70183259      -1.62186784       0.00000000
Si      -1.41720624      -1.48291128       1.42591014       0.00000000
Si      -2.73975876       2.12450922      -0.07930290       0.00000000
Si      -0.12335440      -1.50987123      -3.50510598       0.00000000
Si      -0.21936996       2.42737290       2.95560550       0.00000000
Si       3.25544084       2.09750040       0.24415141       0.00000000
Si       2.49228692      -0.32088042       2.97462517       0.00000000
Si       2.11833368      -3.26163267      -0.24127016       0.00000000
