10
Lattice="16.28999089631971 0.0 0.0 0.0 16.28999089631971 0.0 0.0 0.0 34.3005442915855" Properties=species:S:1:pos:R:3:initial_magmoms:R:1 pbc="T T T"
Si      -1.35836934       1.35692442      -1.35398044       0.00000000
Si       1.35752715       1.35545832       1.35816511       0.00000000
Si      -1.35705800      -1.35984196       1.35850812       0.00000000
Si       1.35998694      -1.36129014      -1.36084055       0.00000000
Si      -2.71361366       2.71132389       0.00188653       0.00000000
Si       0.00081450       2.69182476      -2.73458155       0.00000000
Si       0.00058644       2.71248048       2.71622732       0.00000000
Si      -2.71469781      -0.00268785       2.71567851       0.00000000
Si      -2.71426328      -2.71620256       0.00106332       0.00000000
Si       2.71538010      -0.00252495       2.71588431       0.00000000
