10
Lattice="16.28999089631971 0.0 0.0 0.0 16.28999089631971 0.0 0.0 0.0 34.3005442915855" Properties=species:S:1:pos:R:3:initial_magmoms:R:1 pbc="T T T"
Si      -1.86582402       0.29862828      -1.40666611       0.00000000
Si       1.81716579      -0.08781939      -1.58653826       0.00000000
Si      -0.31255623      -2.07412425       1.19732977       0.00000000
Si      -0.37196586       1.68234975       1.78716226       0.00000000
Si      -1.23595488       2.59296075      -1.81672934       0.00000000
Si       1.10649825       3.20704488      -1.47331210       0.00000000
Si       2.82411585      -2.20993398      -1.31659283       0.00000000
Si       3.07540539       1.84464702      -1.33717317       0.00000000
Si      -3.80743898      -0.46729494      -0.14893305       0.00000000
Si       1.68604758      -2.52268569       2.37164386       0.00000000
