10
Lattice="16.28999089631971 0.0 0.0 0.0 16.28999089631971 0.0 0.0 0.0 34.3005442915855" Properties=species:S:1:pos:R:3:initial_magmoms:R:1 pbc="T T T"
Si       0.96536169       1.85676678       1.20466121       0.00000000
Si      -0.03556107       0.95496867      -2.27275533       0.00000000
Si      -1.91717010      -0.91250064       1.30574154       0.00000000
Si       1.52691057      -1.97107371       0.18539973       0.00000000
Si       1.95883992       0.34375158       2.75666910       0.00000000
Si      -2.54685191       1.60938684      -1.95135906       0.00000000
Si      -0.76315392      -2.41838082       2.73047376       0.00000000
Si       3.32151471      -0.98759754       1.39612353       0.00000000
Si      -3.25544084      -2.09750040      -0.24415141       0.00000000
Si       3.46401963       1.42377858      -1.38714909       0.00000000
