10
Lattice="16.28999089631971 0.0 0.0 0.0 16.28999089631971 0.0 0.0 0.0 34.3005442915855" Properties=species:S:1:pos:R:3:initial_magmoms:R:1 pbc="T T T"
Si      -1.29028203       1.34627076       1.39695905       0.00000000
Si       1.33807689       1.35366642      -1.35346593       0.00000000
Si       1.24660854      -1.41635034       1.40217273       0.00000000
Si      -1.37047770      -1.36306575      -1.34742903       0.00000000
Si      -0.68240439      -2.11815612       2.65723035       0.00000000
Si      -2.40336144      -0.29079279       2.73769947       0.00000000
Si       2.70174537       2.70371646       0.02157505       0.00000000
Si       2.69799867      -0.00316026      -2.70902420       0.00000000
Si      -0.01677870       2.70943425      -2.70984742       0.00000000
Si      -0.01642032      -2.71927341      -2.70940151       0.00000000
