10
Lattice="16.28999089631971 0.0 0.0 0.0 16.28999089631971 0.0 0.0 0.0 34.3005442915855" Properties=species:S:1:pos:R:3:initial_magmoms:R:1 pbc="T T T"
Si       1.82578564       1.32058143       0.75752794       0.00000000
Si       0.82667596      -2.14197210      -0.68035168       0.00000000
Si      -0.66054795       1.15585695      -2.04009461       0.00000000
Si      -1.57586676       0.04427622       1.87404559       0.00000000
Si       2.50770133       0.04939128       2.61246812       0.00000000
Si       0.60050886       3.14875926      -1.73903857       0.00000000
Si      -1.19832972      -3.32979003      -0.98092751       0.00000000
Si       1.09423269       3.57528033       0.52551893       0.00000000
Si      -3.66926208       0.58640742       0.85504445       0.00000000
Si       3.58258069       1.20995604      -0.76960174       0.00000000
