10
Lattice="16.28999089631971 0.0 0.0 0.0 16.28999089631971 0.0 0.0 0.0 34.3005442915855" Properties=species:S:1:pos:R:3:initial_magmoms:R:1 pbc="T T T"
Si       1.75679505      -0.11062539      -1.52712969       0.00000000
Si       0.68191569      -1.27119015       1.85494017       0.00000000
Si      -1.82578564      -1.32058143      -0.75752794       0.00000000
Si      -0.73155295       2.25469890      -0.23200901       0.00000000
Si      -1.22527678       1.82817783      -2.49656651       0.00000000
Si       0.98746722       1.45003806      -3.12886310       0.00000000
Si      -0.65871710      -0.27223848       3.55062283       0.00000000
Si      -2.48633360      -0.16472448      -2.79762256       0.00000000
Si      -2.33029169       2.52367938       1.50315359       0.00000000
Si       3.02436882      -0.65710602       2.19835741       0.00000000
