10
Lattice="16.28999089631971 0.0 0.0 0.0 16.28999089631971 0.0 0.0 0.0 34.3005442915855" Properties=species:S:1:pos:R:3:initial_magmoms:R:1 pbc="T T T"
Si       1.35851432      -1.35586557       1.36056615       0.00000000
Si      -1.35755714       1.35909022       1.36176667       0.00000000
Si      -1.35043799      -1.35845568      -1.38677521       0.00000000
Si       1.35515858       1.35193968      -1.39251026       0.00000000
Si      -2.71449785      -2.71303434      -0.00003430       0.00000000
Si       2.71669307       2.71400264      -0.00013720       0.00000000
Si      -2.71747892       2.71372896       0.00233244       0.00000000
Si       2.71491746      -2.71660185       0.00034301       0.00000000
Si      -0.00034535      -2.71451673       2.71876556       0.00000000
Si       2.71504778       0.00024435       2.71907427       0.00000000
