10
Lattice="16.28999089631971 0.0 0.0 0.0 16.28999089631971 0.0 0.0 0.0 34.3005442915855" Properties=species:S:1:pos:R:3:initial_magmoms:R:1 pbc="T T T"
Si       1.21361314       1.11345408      -1.70401769       0.00000000
Si       1.78540843      -1.22745150       1.04946004       0.00000000
Si      -1.48791135      -1.39243662      -1.34293566       0.00000000
Si      -1.04287766       1.72179340       1.39232847       0.00000000
Si       2.52453461       2.48264228      -0.28935955       0.00000000
Si       3.28920349       0.72117459       1.31052163       0.00000000
Si       0.73804288       3.43501433       0.95842634       0.00000000
Si      -2.68107240       2.68928419      -0.09707059       0.00000000
Si      -3.14760171      -2.34619983       0.42275444       0.00000000
Si      -0.01666793       2.59519804      -3.02081632       0.00000000
