10
Lattice="10.86 0.0 0.0 0.0 10.86 0.0 0.0 0.0 10.86" Properties=species:S:1:pos:R:3:initial_magmoms:R:1 pbc="T T T"
Si       1.35750000       1.35750000       1.35750000       0.00000000
Si      -1.35750000      -1.35750000       1.35750000       0.00000000
Si      -1.35750000       1.35750000      -1.35750000       0.00000000
Si       1.35750000      -1.35750000      -1.35750000       0.00000000
Si      -0.19234146      -2.44578060      -2.63681886       0.00000000
Si      -2.54889630       0.15130152      -2.61361104       0.00000000
Si       2.72973702      -0.05870916       2.57161542       0.00000000
Si       2.62518780      -0.23204562      -2.74609218       0.00000000
Si      -0.19419852       2.57377656      -2.80872180       0.00000000
Si      -2.71500000       2.71500000       0.00000000       0.00000000
