10
Lattice="10.86 0.0 0.0 0.0 10.86 0.0 0.0 0.0 10.86" Properties=species:S:1:pos:R:3:initial_magmoms:R:1 pbc="T T T"
Si       1.34276298      -1.29879084      -1.21411542       0.00000000
Si      -1.37223702       1.41620916      -1.21411542       0.00000000
Si       1.34276298       1.41620916       1.50088458       0.00000000
Si      -0.01473702      -2.65629084      -2.57161542       0.00000000
Si       2.70026298       0.05870916      -2.57161542       0.00000000
Si      -2.72973702       0.05870916      -2.57161542       0.00000000
Si      -0.01473702       2.77370916      -2.57161542       0.00000000
Si       2.70026298      -2.65629084       0.14338458       0.00000000
Si      -2.76387000      -2.62133250       0.24589212       0.00000000
Si       2.70026298       2.77370916       0.14338458       0.00000000
