10
Lattice="10.86 0.0 0.0 0.0 10.86 0.0 0.0 0.0 10.86" Properties=species:S:1:pos:R:3:initial_magmoms:R:1 pbc="T T T"
Si      -1.32336702      -1.39245834       1.25499246       0.00000000
Si      -1.32336702       1.32254166      -1.46000754       0.00000000
Si       1.39163298      -1.39245834      -1.46000754       0.00000000
Si      -2.28305436       0.04084446       2.59406304       0.00000000
Si       0.03413298      -2.74995834       2.61249246       0.00000000
Si       2.76387000       2.62133250      -0.24589212       0.00000000
Si       2.68282182      -0.12594342       2.73551454       0.00000000
Si      -2.68086702      -2.74995834      -0.10250754       0.00000000
Si       0.03413298       2.68004166      -2.81750754       0.00000000
Si      -2.68086702      -0.03495834      -2.81750754       0.00000000
