10
Lattice="10.86 0.0 0.0 0.0 10.86 0.0 0.0 0.0 10.86" Properties=species:S:1:pos:R:3:initial_magmoms:R:1 pbc="T T T"
Si       1.51693566       1.30970514      -1.17444384       0.00000000
Si      -1.19806434       1.30970514       1.54055616       0.00000000
Si       1.51693566      -1.40529486       1.54055616       0.00000000
Si      -2.26174704      -0.00240006      -2.44839786       0.00000000
Si       0.15943566       2.66720514      -2.53194384       0.00000000
Si      -2.55556434       2.66720514       0.18305616       0.00000000
Si       0.02062314      -2.74978458      -2.50194852       0.00000000
Si       2.87443566      -0.04779486      -2.53194384       0.00000000
Si      -2.55556434      -0.04779486       2.89805616       0.00000000
Si       2.87443566       2.66720514       0.18305616       0.00000000
