10
Lattice="10.86 0.0 0.0 0.0 10.86 0.0 0.0 0.0 10.86" Properties=species:S:1:pos:R:3:initial_magmoms:R:1 pbc="T T T"
Si      -1.13317584      -1.36792560       1.40504508       0.00000000
Si       1.43775540       1.45100460       1.12860378       0.00000000
Si       1.43775540      -1.26399540      -1.58639622       0.00000000
Si      -1.27724460       1.45100460      -1.58639622       0.00000000
Si      -2.47106268      -2.77600062       0.05435430       0.00000000
Si       0.08025540       2.80850460       2.48610378       0.00000000
Si       2.62244022      -2.65787640      -0.46798998       0.00000000
Si      -2.69602758       0.06568128       2.63550480       0.00000000
Si      -2.63474460       2.80850460      -0.22889622       0.00000000
Si       3.14462160       0.47900202       2.24942094       0.00000000
