10
Lattice="16.28999089631971 0.0 0.0 0.0 16.28999089631971 0.0 0.0 0.0 34.35334932831803" Properties=species:S:1:pos:R:3:initial_magmoms:R:1 pbc="T T T"
Si       1.84342999       1.28172164       0.51090330       0.00000000
Si       0.81913108      -2.05996728      -0.84577993       0.00000000
Si      -1.50775599       1.39915624      -1.25101227       0.00000000
Si       0.96061136       0.25700570       2.58990045       0.00000000
Si      -0.66574218      -3.06820425       0.72210781       0.00000000
Si      -0.37301088      -1.81480278       2.77135495       0.00000000
Si       0.63060529      -1.31815326      -3.21722732       0.00000000
Si      -1.04580417       0.52053555      -3.41627073       0.00000000
Si      -3.55208583       1.02485114      -0.15850644       0.00000000
Si      -2.86516911      -2.83141281      -0.24332491       0.00000000
