10
Lattice="16.28999089631971 0.0 0.0 0.0 16.28999089631971 0.0 0.0 0.0 34.35334932831803" Properties=species:S:1:pos:R:3:initial_magmoms:R:1 pbc="T T T"
Si      -2.05876278       0.07512948       1.06636291       0.00000000
Si      -0.09480780      -0.75877191      -2.19023336       0.00000000
Si       0.71390925       2.28853323      -0.03455949       0.00000000
Si       1.54378701      -1.43612640       1.14829570       0.00000000
Si      -1.23219189       0.71664597       3.17823624       0.00000000
Si       1.16058105       1.12212036       3.10489180       0.00000000
Si       2.70088200       2.05767135       1.33789194       0.00000000
Si       2.22037587      -0.49581873      -2.90952419       0.00000000
Si      -3.02936333       2.11229172       0.43092865       0.00000000
Si       3.58156827      -0.19956879       1.05200320       0.00000000
