10
Lattice="16.28999089631971 0.0 0.0 0.0 16.28999089631971 0.0 0.0 0.0 34.35334932831803" Properties=species:S:1:pos:R:3:initial_magmoms:R:1 pbc="T T T"
Si      -1.13283918      -1.56510410       1.36774501       0.00000000
Si       1.28257686       1.43698977       1.38389110       0.00000000
Si      -1.34617302       1.37842722      -1.45050228       0.00000000
Si       1.37402892      -1.33341143      -1.47303809       0.00000000
Si       0.59453613      -3.39613010       1.42738246       0.00000000
Si       2.63104677      -2.80240847      -0.16314415       0.00000000
Si      -2.74217715      -2.79269963       0.02346335       0.00000000
Si      -2.69658144       0.01583388      -2.84490551       0.00000000
Si       0.02041137      -2.69895258      -2.84600482       0.00000000
Si       2.80383480       2.75682186       0.05324772       0.00000000
