10
Lattice="16.28999089631971 0.0 0.0 0.0 16.28999089631971 0.0 0.0 0.0 34.35334932831803" Properties=species:S:1:pos:R:3:initial_magmoms:R:1 pbc="T T T"
Si      -1.39799151      -1.77539238       0.67473451       0.00000000
Si       1.85583825      -0.17079902       1.47547718       0.00000000
Si      -1.45608165       1.89357892       0.22291901       0.00000000
Si       0.28504242      -1.05253274      -2.13908120       0.00000000
Si       0.39850227      -0.72180338       3.21918546       0.00000000
Si       2.44480320      -0.51226511      -2.81147968       0.00000000
Si      -3.38496426      -1.54453050      -0.69771691       0.00000000
Si      -1.24818867      -0.15119726      -3.66066060       0.00000000
Si       2.36312514      -2.50783965       1.76937025       0.00000000
Si      -0.22017564       3.89571766       0.72777611       0.00000000
