10
Lattice="16.28999089631971 0.0 0.0 0.0 16.28999089631971 0.0 0.0 0.0 34.35334932831803" Properties=species:S:1:pos:R:3:initial_magmoms:R:1 pbc="T T T"
Si       1.35392706      -1.35337320       1.35791995       0.00000000
Si      -1.34874684      -1.35886293      -1.36945925       0.00000000
Si      -1.35871632       1.36503684       1.35524039       0.00000000
Si       1.34568432       1.36733373      -1.36918442       0.00000000
Si      -0.37077669       2.36141469      -2.72935108       0.00000000
Si      -2.51578687       0.15483645      -2.77553919       0.00000000
Si       0.20486304      -2.64456747      -2.73774017       0.00000000
Si       2.71319724      -2.70829395      -0.00034353       0.00000000
Si      -0.00296478      -2.70951570       2.71453447       0.00000000
Si       2.71178001       0.00449604       2.71443141       0.00000000
