10
Lattice="16.28999089631971 0.0 0.0 0.0 16.28999089631971 0.0 0.0 0.0 34.35334932831803" Properties=species:S:1:pos:R:3:initial_magmoms:R:1 pbc="T T T"
Si      -1.29152007      -1.38302100      -1.34658475       0.00000000
Si       1.75769100       0.86244147      -1.25924265       0.00000000
Si       1.22176629      -1.47663963       1.38204632       0.00000000
Si      -1.49265270       1.24274781       1.37061352       0.00000000
Si       0.63092799       0.91421109      -3.40304610       0.00000000
Si      -3.27139038       0.14085963      -1.46300832       0.00000000
Si       3.37823649      -0.95187357      -1.22093143       0.00000000
Si       2.47309893      -2.82321990      -0.07754586       0.00000000
Si       2.58949098      -0.12171888       2.73677485       0.00000000
Si      -0.12483027       2.59522506       2.73732450       0.00000000
