10
Lattice="16.28999089631971 0.0 0.0 0.0 16.28999089631971 0.0 0.0 0.0 34.35334932831803" Properties=species:S:1:pos:R:3:initial_magmoms:R:1 pbc="T T T"
Si       0.97407684      -1.16224263       1.82729003       0.00000000
Si       1.05531507      -1.22074002      -1.84669968       0.00000000
Si      -2.37708567      -0.48909096       0.37744046       0.00000000
Si       1.06409538       2.67392205       0.16207919       0.00000000
Si      -2.75762007       1.88991693       0.86883104       0.00000000
Si       3.28227210      -0.86340258       1.08934532       0.00000000
Si      -2.30876541       2.15252802      -1.73986070       0.00000000
Si       0.00421911      -3.28256532       2.16103300       0.00000000
Si       2.57657301       0.09909207      -3.17734306       0.00000000
Si       0.63091170       3.19759668       2.51865157       0.00000000
