10
Lattice="16.28999089631971 0.0 0.0 0.0 16.28999089631971 0.0 0.0 0.0 34.35334932831803" Properties=species:S:1:pos:R:3:initial_magmoms:R:1 pbc="T T T"
Si       0.47711781       0.74591910       2.15993369       0.00000000
Si      -0.96985773      -2.12032269       0.33374298       0.00000000
Si      -0.97407684       1.16224263      -1.82729003       0.00000000
Si       2.30819526       0.29884005      -0.73794471       0.00000000
Si       1.24944300       2.92469031       1.67970795       0.00000000
Si       2.37094434      -0.55449531       2.68962828       0.00000000
Si       0.08123823      -0.05849739      -3.67398970       0.00000000
Si      -3.35116251       0.67315167      -1.44984957       0.00000000
Si       3.51776034      -1.09040373       0.68246402       0.00000000
Si       0.69198291      -3.69343007      -0.18973365       0.00000000
