10
Lattice="16.28999089631971 0.0 0.0 0.0 16.28999089631971 0.0 0.0 0.0 34.35334932831803" Properties=species:S:1:pos:R:3:initial_magmoms:R:1 pbc="T T T"
Si       0.11748348       2.32772697       0.11621745       0.00000000
Si      -0.78257160      -0.46143054       2.16793803       0.00000000
Si       2.17315116      -0.84747096       0.39860214       0.00000000
Si      -1.36710567      -0.75989592      -1.85065032       0.00000000
Si       1.93973175      -3.05898507      -0.36710010       0.00000000
Si      -0.37455597       0.32246055      -3.72620682       0.00000000
Si      -1.31991354       3.03577182       1.86288012       0.00000000
Si      -0.69885729       1.48380723       3.52389984       0.00000000
Si       0.38765313       3.31154523      -2.00238914       0.00000000
Si       2.22500223       3.16190529       0.82674817       0.00000000
