10
Lattice="16.28999089631971 0.0 0.0 0.0 16.28999089631971 0.0 0.0 0.0 34.35334932831803" Properties=species:S:1:pos:R:3:initial_magmoms:R:1 pbc="T T T"
Si      -0.90647334      -0.64619172       2.09830375       0.00000000
Si       2.09256453      -1.11666321       0.15057081       0.00000000
Si      -0.06656094       2.37338784       0.22989274       0.00000000
Si      -0.91645911      -0.55864926      -2.14602058       0.00000000
Si      -2.77780338      -1.64864574       1.10635023       0.00000000
Si       1.07375535      -0.17663247      -3.36082440       0.00000000
Si      -1.76935464       2.64565890       1.85250540       0.00000000
Si       2.05485318       3.06807489       0.99198787       0.00000000
Si       0.46305954      -2.30306391       3.06933606       0.00000000
Si       2.05042230      -3.15055116      -0.99913337       0.00000000
