10
Lattice="16.28999089631971 0.0 0.0 0.0 16.28999089631971 0.0 0.0 0.0 34.35334932831803" Properties=species:S:1:pos:R:3:initial_magmoms:R:1 pbc="T T T"
Si       1.69881894       0.80352054       1.56551736       0.00000000
Si      -1.18219788       1.49161014      -1.53899656       0.00000000
Si       1.51500258      -1.23551505      -1.54442439       0.00000000
Si      -1.75532895      -0.93452472       1.53483980       0.00000000
Si      -2.72005533      -2.55005289       0.00340098       0.00000000
Si       0.25314660       1.94290830       3.23667132       0.00000000
Si       2.94917418      -2.47541211      -0.03885366       0.00000000
Si      -2.59125030       2.85874839      -0.01549337       0.00000000
Si      -2.54161467       0.12357594      -2.93580452       0.00000000
Si       2.79096570       2.70249471      -0.19533325       0.00000000
