10
Lattice="16.28999089631971 0.0 0.0 0.0 16.28999089631971 0.0 0.0 0.0 34.35334932831803" Properties=species:S:1:pos:R:3:initial_magmoms:R:1 pbc="T T T"
Si      -1.50206832      -0.70745841      -1.61443655       0.00000000
Si      -0.40014756       2.22843942       0.55460078       0.00000000
Si      -0.27016965      -0.98381826       2.11860659       0.00000000
Si       2.12884236      -0.46514466      -1.16141868       0.00000000
Si       1.83734910      -0.14963994       2.82913731       0.00000000
Si       3.24447930      -0.19241748       0.94083570       0.00000000
Si      -0.76220910      -2.98908468      -1.72381768       0.00000000
Si       1.76746500       1.31558040      -2.77441240       0.00000000
Si      -0.49301685       0.71930124      -3.51507102       0.00000000
Si       1.55957202      -2.62910826      -2.04347577       0.00000000
