10
Lattice="16.28999089631971 0.0 0.0 0.0 16.28999089631971 0.0 0.0 0.0 34.35334932831803" Properties=species:S:1:pos:R:3:initial_magmoms:R:1 pbc="T T T"
Si      -1.27997046      -1.19415474       1.59266137       0.00000000
Si      -1.30352580       1.52694315      -1.25444761       0.00000000
Si       0.02650383      -1.97931645      -1.34500308       0.00000000
Si       1.58311107       1.62869049       1.57460867       0.00000000
Si      -1.34224713      -3.29012388       0.11920619       0.00000000
Si       0.51162003       2.28359736      -2.80429983       0.00000000
Si       0.43649055      -2.18823570       2.95282803       0.00000000
Si      -2.28170772       0.51201099       2.95997696       0.00000000
Si      -2.12055075       3.20922774       0.19756622       0.00000000
Si       2.75822280       2.00604834      -1.89403862       0.00000000
