10
Lattice="16.28999089631971 0.0 0.0 0.0 16.28999089631971 0.0 0.0 0.0 34.35334932831803" Properties=species:S:1:pos:R:3:initial_magmoms:R:1 pbc="T T T"
Si      -1.34864910      -1.33851672       1.36603078       0.00000000
Si       1.36658439       1.37233476       1.36187402       0.00000000
Si      -1.20576951       1.45196028      -1.44472748       0.00000000
Si       1.14521958      -1.59298281      -1.38092640       0.00000000
Si       0.75546504       2.15748018      -2.58707695       0.00000000
Si       2.28281544       0.22643100      -2.59007497       0.00000000
Si      -2.55844224      -0.01244556      -2.75796885       0.00000000
Si       0.00777033      -2.69838963       2.72250789       0.00000000
Si      -2.71959921      -2.70966231       0.00444189       0.00000000
Si      -2.70878265       0.01431891       2.72367591       0.00000000
