10
Lattice="16.28999089631971 0.0 0.0 0.0 16.28999089631971 0.0 0.0 0.0 34.35334932831803" Properties=species:S:1:pos:R:3:initial_magmoms:R:1 pbc="T T T"
Si      -0.19126089       0.04903290      -2.32015780       0.00000000
Si       1.00545138      -2.05079860       0.52505688       0.00000000
Si       1.05145434       2.03968719       0.50788020       0.00000000
Si      -2.06546516       0.32824350       1.17887019       0.00000000
Si       2.10294126      -0.14085963      -2.82676693       0.00000000
Si      -0.86958626      -3.41997866       0.13765395       0.00000000
Si      -0.65601948       3.60499329       0.16809103       0.00000000
Si      -2.68973054       2.57145795       0.90232558       0.00000000
Si       1.01366154      -2.49205397       2.81498372       0.00000000
Si      -1.43498773       1.88573040      -3.15813952       0.00000000
