10
Lattice="16.28999089631971 0.0 0.0 0.0 16.28999089631971 0.0 0.0 0.0 34.35334932831803" Properties=species:S:1:pos:R:3:initial_magmoms:R:1 pbc="T T T"
Si       1.35902583      -1.35614250       1.35376319       0.00000000
Si      -1.35791811      -1.35563751      -1.35781689       0.00000000
Si       1.35674523       1.35955136      -1.35785124       0.00000000
Si      -1.35772263       1.35982213       1.35757642       0.00000000
Si       2.71375110      -2.71210581      -0.00079013       0.00000000
Si      -0.00030951      -2.71319724      -2.71539331       0.00000000
Si       2.71334385       2.71551109      -0.00106495       0.00000000
Si       2.71267596      -0.02450016       2.71638956       0.00000000
Si      -2.71643895      -2.71379997      -0.00041224       0.00000000
Si      -2.71498914       0.00146610      -2.71529025       0.00000000
