10
Lattice="16.28999089631971 0.0 0.0 0.0 16.28999089631971 0.0 0.0 0.0 34.35334932831803" Properties=species:S:1:pos:R:3:initial_magmoms:R:1 pbc="T T T"
Si      -0.34130808       2.34243684      -0.47095033       0.00000000
Si       0.04189788      -0.21580992      -2.42754643       0.00000000
Si       2.24660277      -0.27754902       0.91026121       0.00000000
Si      -1.81514583      -0.75665421       1.54985222       0.00000000
Si      -2.73408102       1.93696245      -0.39760589       0.00000000
Si       2.07967914       1.02074769      -2.52383893       0.00000000
Si      -0.51162003      -2.28359736       2.80429983       0.00000000
Si       3.67380225       0.51666993      -0.83440897       0.00000000
Si       2.52530838      -3.05375598      -0.47926384       0.00000000
Si       2.20908690       1.16450694       3.16975993       0.00000000
