10
Lattice="16.28999089631971 0.0 0.0 0.0 16.28999089631971 0.0 0.0 0.0 34.35334932831803" Properties=species:S:1:pos:R:3:initial_magmoms:R:1 pbc="T T T"
Si       1.42719948       0.79421895      -1.74467017       0.00000000
Si      -2.24660277       0.27754902      -0.91026121       0.00000000
Si      -0.03751587       1.44205596       2.25949873       0.00000000
Si       0.27870561      -2.77620696      -1.38952505       0.00000000
Si      -0.16692363       1.29829671      -3.43410013       0.00000000
Si      -1.17511173      -0.37735785       3.46864729       0.00000000
Si      -2.75822280      -2.00604834       1.89403862       0.00000000
Si      -2.58791085       2.61998586      -1.38121153       0.00000000
Si       3.27709188      -0.79527780      -2.06240448       0.00000000
Si      -2.20470489       0.06173910      -3.33780764       0.00000000
