10
Lattice="16.28999089631971 0.0 0.0 0.0 16.28999089631971 0.0 0.0 0.0 34.35334932831803" Properties=species:S:1:pos:R:3:initial_magmoms:R:1 pbc="T T T"
Si       1.35659862       1.35595973       1.35678629       0.00000000
Si      -1.35663120       1.35708863      -1.35778254       0.00000000
Si       1.35863487      -1.35784091      -1.35719853       0.00000000
Si      -1.35674523      -1.35955136       1.35785124       0.00000000
Si       0.00228060      -2.71569386       2.71161444       0.00000000
Si       0.00079821      -2.71336439      -2.71456883       0.00000000
Si      -2.71419093       2.71425903      -0.00037789       0.00000000
Si      -2.71432125      -0.00011133      -2.71522154       0.00000000
Si      -2.71466334      -2.71518887       0.00003435       0.00000000
Si       2.71567332       0.00087528      -2.71419094       0.00000000
