10
Lattice="16.28999089631971 0.0 0.0 0.0 16.28999089631971 0.0 0.0 0.0 34.35334932831803" Properties=species:S:1:pos:R:3:initial_magmoms:R:1 pbc="T T T"
Si      -1.38802203       1.28049174      -1.44658600       0.00000000
Si      -0.92673810      -1.99421691       0.92699130       0.00000000
Si       1.34068329      -1.42544830      -1.44988392       0.00000000
Si       0.88109352       1.95405066       1.58238486       0.00000000
Si      -2.66944230       2.66194890       0.07313832       0.00000000
Si       2.66248647       2.67265143       0.04081180       0.00000000
Si      -0.02371824       2.63585232      -2.82412172       0.00000000
Si       2.69470809      -0.08071695      -2.82539279       0.00000000
Si       2.57538384      -2.93722451      -0.07334444       0.00000000
Si      -2.73751821      -0.07812684      -2.82714482       0.00000000
