10
Lattice="16.28999089631971 0.0 0.0 0.0 16.28999089631971 0.0 0.0 0.0 34.35334932831803" Properties=species:S:1:pos:R:3:initial_magmoms:R:1 pbc="T T T"
Si       2.15976078       0.54026762      -0.67239848       0.00000000
Si      -1.53323109       0.90133547      -1.52157940       0.00000000
Si      -0.12064374      -2.32735949      -0.56102486       0.00000000
Si      -0.28504242       1.05253274       2.13908120       0.00000000
Si      -1.68303393      -0.72285965       2.81381571       0.00000000
Si       2.07619308      -0.11230326      -2.94284696       0.00000000
Si       1.27164627      -2.32258652      -2.47120956       0.00000000
Si      -1.09859760       3.22351407      -1.39983106       0.00000000
Si      -3.69836757       0.38207869      -0.78459658       0.00000000
Si       1.00782972      -3.54042692       1.06165650       0.00000000
