10
Lattice="16.28999089631971 0.0 0.0 0.0 16.28999089631971 0.0 0.0 0.0 34.35334932831803" Properties=species:S:1:pos:R:3:initial_magmoms:R:1 pbc="T T T"
Si      -1.35752715       1.35723393      -1.36073693       0.00000000
Si       1.35949824      -1.35860229      -1.36022163       0.00000000
Si      -1.36430379      -1.35536058       1.37753572       0.00000000
Si       1.36397799       1.37500632       1.38237955       0.00000000
Si       2.71608057       2.71094922      -0.00161461       0.00000000
Si      -2.71309950       2.71459818       0.00130543       0.00000000
Si      -2.71379997      -2.71397916      -0.00302310       0.00000000
Si      -2.71383255      -0.00048870      -2.71769498       0.00000000
Si       0.00081450       2.71441899      -2.71738580       0.00000000
Si       0.00068418      -2.71510317      -2.71711098       0.00000000
