10
Lattice="16.28999089631971 0.0 0.0 0.0 16.28999089631971 0.0 0.0 0.0 34.35334932831803" Properties=species:S:1:pos:R:3:initial_magmoms:R:1 pbc="T T T"
Si       2.05491834       0.03091842      -1.01077916       0.00000000
Si       0.52878969      -1.48020714       1.75480442       0.00000000
Si      -0.54374391       2.27278080       0.48397026       0.00000000
Si      -1.73855025      -0.54644805      -1.55899022       0.00000000
Si      -1.66175919      -1.79124840       2.37453919       0.00000000
Si      -3.52326636       0.02186118      -0.10804134       0.00000000
Si      -2.89973403       0.30911904       2.13327548       0.00000000
Si       1.92138921       1.53632619      -2.74359742       0.00000000
Si       3.65327685       0.24149925       0.90126062       0.00000000
Si      -0.29108601       2.37329010      -2.96806233       0.00000000
