10
Lattice="16.28999089631971 0.0 0.0 0.0 16.28999089631971 0.0 0.0 0.0 34.35334932831803" Properties=species:S:1:pos:R:3:initial_magmoms:R:1 pbc="T T T"
Si      -0.62353233      -0.28725786      -2.24131682       0.00000000
Si      -1.99021446      -0.38201679       1.21480382       0.00000000
Si       1.11389391       2.05649847       0.33731573       0.00000000
Si       1.23797484      -2.10036744       0.24126371       0.00000000
Si      -1.39585752      -2.46602907      -1.76109108       0.00000000
Si      -2.22363387      -2.59353090       0.44910159       0.00000000
Si       2.35599012       1.96366176      -1.64930522       0.00000000
Si      -1.07375535       0.17663247       3.36082440       0.00000000
Si       2.89973403      -0.30911904      -2.13327548       0.00000000
Si      -0.53123319       3.58458192      -0.24535176       0.00000000
