10
Lattice="16.28999089631971 0.0 0.0 0.0 16.28999089631971 0.0 0.0 0.0 34.35334932831803" Properties=species:S:1:pos:R:3:initial_magmoms:R:1 pbc="T T T"
Si       0.33181101      -1.65123585       1.65493918       0.00000000
Si      -1.68342489       1.64041929       0.39526986       0.00000000
Si      -0.49974462      -1.02221379      -2.10311322       0.00000000
Si       1.89495054       1.42848639      -0.47466049       0.00000000
Si       1.74508254      -1.27360107      -2.84796296       0.00000000
Si       2.59302591      -2.33551359       1.00823701       0.00000000
Si      -2.21747625       2.35491498      -1.75511360       0.00000000
Si      -2.25961848       0.32102703      -2.90481778       0.00000000
Si       0.98440470       3.57747948      -0.40983569       0.00000000
Si      -0.58630968       3.51881919       1.33435354       0.00000000
