10
Lattice="16.28999089631971 0.0 0.0 0.0 16.28999089631971 0.0 0.0 0.0 34.35334932831803" Properties=species:S:1:pos:R:3:initial_magmoms:R:1 pbc="T T T"
Si      -1.47259971       1.23342993       1.36880997       0.00000000
Si      -1.37523438      -1.34345259      -1.36990928       0.00000000
Si       1.34483724       1.37153655      -1.37361944       0.00000000
Si       1.27312866      -1.44218628       1.51299106       0.00000000
Si       2.68972335       2.70580158      -0.00261086       0.00000000
Si       2.69045640      -2.70806589       0.00632102       0.00000000
Si       2.69658144       0.01360215      -2.72978737       0.00000000
Si      -0.44176851      -2.17929249       3.12832080       0.00000000
Si      -0.01622484      -2.70249471      -2.72879112       0.00000000
Si      -2.73369006       2.70166392      -0.01247027       0.00000000
