10
Lattice="16.28999089631971 0.0 0.0 0.0 16.28999089631971 0.0 0.0 0.0 34.35334932831803" Properties=species:S:1:pos:R:3:initial_magmoms:R:1 pbc="T T T"
Si      -1.69881894      -0.80352054      -1.56551736       0.00000000
Si      -1.44567234       1.13938776       1.67115397       0.00000000
Si       2.12297796      -1.51374825      -0.00133978       0.00000000
Si       1.09214676       1.89897417      -1.76085061       0.00000000
Si       2.58206274       0.36799110       2.07559617       0.00000000
Si       1.42320843      -2.06790147       2.22262859       0.00000000
Si      -0.09107739       3.14748864       1.46778202       0.00000000
Si      -0.18381636      -2.03903559      -3.10994175       0.00000000
Si       1.25035524      -3.27893265      -1.60437102       0.00000000
Si       0.44051418      -0.53717904       3.79986045       0.00000000
