10
Lattice="16.28999089631971 0.0 0.0 0.0 16.28999089631971 0.0 0.0 0.0 34.35334932831803" Properties=species:S:1:pos:R:3:initial_magmoms:R:1 pbc="T T T"
Si       1.85331330       1.42843752       0.03778871       0.00000000
Si      -1.24209621       0.09283671       1.98662095       0.00000000
Si       0.54374391      -2.27278080      -0.48397026       0.00000000
Si      -0.73003635       1.63123173      -1.87480073       0.00000000
Si       0.25265790       0.10050930      -3.45203259       0.00000000
Si      -2.35599012      -1.96366176       1.64930522       0.00000000
Si      -2.88722331       1.62092016       1.40395346       0.00000000
Si      -1.19480634      -2.81922885      -2.04296047       0.00000000
Si       2.77110819       1.32781419      -2.11307570       0.00000000
Si       2.59866225      -2.24186238      -1.49474942       0.00000000
