10
Lattice="16.28999089631971 0.0 0.0 0.0 16.28999089631971 0.0 0.0 0.0 34.35334932831803" Properties=species:S:1:pos:R:3:initial_magmoms:R:1 pbc="T T T"
Si       1.18131822       1.42118847       1.52880876       0.00000000
Si      -1.55281167      -1.26938196       1.43650813       0.00000000
Si       1.19993769       0.66529989      -2.06133953       0.00000000
Si       1.06437231      -1.76678082      -1.39206720       0.00000000
Si       2.46264075      -2.81487942       0.16269755       0.00000000
Si       2.43098928      -0.01050705       2.90843661       0.00000000
Si       3.04935768       2.29397409       0.22953245       0.00000000
Si      -2.47111155      -3.09982410       0.27336560       0.00000000
Si      -0.27246654       2.70006750       2.91202653       0.00000000
Si      -0.27842868      -2.70925506       2.90861181       0.00000000
