10
Lattice="16.28999089631971 0.0 0.0 0.0 16.28999089631971 0.0 0.0 0.0 34.35334932831803" Properties=species:S:1:pos:R:3:initial_magmoms:R:1 pbc="T T T"
Si       1.32256881      -0.01418859       1.94470984       0.00000000
Si      -1.12694220      -1.89061740      -0.88030507       0.00000000
Si       1.65359790       0.88330896      -1.49413106       0.00000000
Si      -1.84989240       1.58949675       0.31773431       0.00000000
Si       0.34805214       2.75299371      -2.04103668       0.00000000
Si      -1.55509227      -0.89692740      -3.11011351       0.00000000
Si      -1.63383813       1.53324738      -2.83796613       0.00000000
Si      -2.99838627      -1.98092916       0.67287943       0.00000000
Si      -0.56358513       3.61836738       0.00882882       0.00000000
Si       1.18700343      -2.44626930       2.61398216       0.00000000
