10
Lattice="16.28999089631971 0.0 0.0 0.0 16.28999089631971 0.0 0.0 0.0 34.35334932831803" Properties=species:S:1:pos:R:3:initial_magmoms:R:1 pbc="T T T"
Si       1.35716380      -1.35705963      -1.35767948       0.00000000
Si      -1.35888974      -1.35647319       1.35668323       0.00000000
Si      -1.35726074       1.35765747      -1.35771383       0.00000000
Si       1.35813306       1.35723393       1.35754206       0.00000000
Si      -2.71234439      -0.00118917       2.71618344       0.00000000
Si       2.71472516      -2.71443133      -0.00020612       0.00000000
Si      -2.71459241      -2.71492823      -0.00020612       0.00000000
Si       2.71307987       0.00048870       2.71656132       0.00000000
Si      -2.71467386       2.71505430      -0.00003435       0.00000000
Si       0.00117865      -2.71454021      -2.71522154       0.00000000
