10
Lattice="16.28999089631971 0.0 0.0 0.0 16.28999089631971 0.0 0.0 0.0 34.35334932831803" Properties=species:S:1:pos:R:3:initial_magmoms:R:1 pbc="T T T"
Si       1.35721764       1.35594702       1.35761077       0.00000000
Si      -1.35651717       1.35767376      -1.35716418       0.00000000
Si      -1.35814617      -1.35614250       1.35709547       0.00000000
Si       1.35767376      -1.35711990      -1.35771383       0.00000000
Si      -2.71287144      -0.00017919       2.71164879       0.00000000
Si      -2.71435383       0.00215028      -2.71453447       0.00000000
Si      -2.71423980      -2.71476108      -0.00044659       0.00000000
Si       2.71549413      -2.71477737      -0.00024047       0.00000000
Si       2.71497285      -0.00013032      -2.71539331       0.00000000
Si      -0.00076563      -2.71365336       2.71683615       0.00000000
