10
Lattice="16.28999089631971 0.0 0.0 0.0 16.28999089631971 0.0 0.0 0.0 34.35334932831803" Properties=species:S:1:pos:R:3:initial_magmoms:R:1 pbc="T T T"
Si      -1.53945387       1.80139285      -0.35490465       0.00000000
Si      -0.73409256      -1.85077206      -1.36791678       0.00000000
Si       1.96266807       0.85838526      -1.35524039       0.00000000
Si      -1.91731671      -0.60225759       1.86071585       0.00000000
Si      -1.99518291      -0.38253807      -2.74919702       0.00000000
Si       0.72796752       2.37016146      -2.73177987       0.00000000
Si      -3.46690296       1.06578321       1.21889187       0.00000000
Si      -3.45494610       0.89832834      -1.42514949       0.00000000
Si       1.95760188      -1.42983846       3.02845556       0.00000000
Si      -0.61271577       3.79560977      -1.28189595       0.00000000
