10
Lattice="16.28999089631971 0.0 0.0 0.0 16.28999089631971 0.0 0.0 0.0 34.35334932831803" Properties=species:S:1:pos:R:3:initial_magmoms:R:1 pbc="T T T"
Si      -1.35040842      -1.36259334      -1.39440323       0.00000000
Si       1.36712196       1.35182565      -1.38863186       0.00000000
Si       1.34617302      -1.37842722       1.45050228       0.00000000
Si      -1.41384168       1.44984258       1.59286264       0.00000000
Si      -2.69281845       2.70384678      -0.02834153       0.00000000
Si      -2.69228903      -2.71817546      -0.01102743       0.00000000
Si       2.72020194      -2.71183865      -0.02253581       0.00000000
Si       2.72073951       2.71557558       0.00783257       0.00000000
Si      -2.70535523      -0.00584811      -2.75342249       0.00000000
Si       0.00933417       2.71140534      -2.75462486       0.00000000
