10
Lattice="16.28999089631971 0.0 0.0 0.0 16.28999089631971 0.0 0.0 0.0 34.35334932831803" Properties=species:S:1:pos:R:3:initial_magmoms:R:1 pbc="T T T"
Si      -1.22181516      -1.03581594      -1.70255294       0.00000000
Si       2.08971378      -1.09147887       0.07904710       0.00000000
Si      -1.39229001      -0.00477297       1.91018470       0.00000000
Si       0.80454681       2.21028326      -0.47163740       0.00000000
Si      -3.26611242       0.04165353      -1.12180925       0.00000000
Si       0.88811451       2.86285414       1.79881108       0.00000000
Si       2.45128662      -1.24514244      -2.26319992       0.00000000
Si       0.38424852      -0.95840586      -3.42180163       0.00000000
Si      -1.27164627       2.32258652       2.47120956       0.00000000
Si       3.55679118       0.52483122       0.87518642       0.00000000
