10
Lattice="16.28999089631971 0.0 0.0 0.0 16.28999089631971 0.0 0.0 0.0 34.35334932831803" Properties=species:S:1:pos:R:3:initial_magmoms:R:1 pbc="T T T"
Si       1.35764118       1.35653346       1.35761077       0.00000000
Si      -1.35734796      -1.35901931       1.35788560       0.00000000
Si      -1.35762489       1.35738054      -1.36049645       0.00000000
Si       1.35773892      -1.36032414      -1.36032469       0.00000000
Si       0.00022806       2.71393029       2.71529025       0.00000000
Si      -2.71466334       2.71474479       0.00030918       0.00000000
Si      -2.71487511      -2.71481727       0.00116801       0.00000000
Si       2.71490192      -0.00112401       2.71532460       0.00000000
Si      -2.71518462      -0.00084708       2.71566814       0.00000000
Si       2.71689507       2.71412577       0.00006871       0.00000000
