10
Lattice="16.28999089631971 0.0 0.0 0.0 16.28999089631971 0.0 0.0 0.0 34.35334932831803" Properties=species:S:1:pos:R:3:initial_magmoms:R:1 pbc="T T T"
Si       2.01370464       1.18426671      -0.27932724       0.00000000
Si      -0.82940535      -0.45522405      -2.16999923       0.00000000
Si      -1.35329175       1.76249655       0.83093928       0.00000000
Si       0.66862305      -1.77336198       1.44455915       0.00000000
Si       0.19955250      -1.01672406       3.62795619       0.00000000
Si       3.05151678      -1.90793367       1.13620331       0.00000000
Si       0.17283690       3.27362211      -1.93464430       0.00000000
Si      -3.13703046      -0.75052917      -2.02915042       0.00000000
Si      -0.30138129       2.76742665       2.65764530       0.00000000
Si       3.66623459       0.38814183       1.14300528       0.00000000
