10
Lattice="16.28999089631971 0.0 0.0 0.0 16.28999089631971 0.0 0.0 0.0 34.35334932831803" Properties=species:S:1:pos:R:3:initial_magmoms:R:1 pbc="T T T"
Si       1.35705474       1.35842310       1.35647711       0.00000000
Si      -1.35659862      -1.35827649       1.35726724       0.00000000
Si       1.35741312      -1.35739683      -1.35767948       0.00000000
Si      -1.35782037       1.35757602      -1.35757642       0.00000000
Si      -0.00001629       2.71127502       2.71587426       0.00000000
Si      -0.00022806      -2.71393029      -2.71529025       0.00000000
Si       2.71497893       2.71459818      -0.00017177       0.00000000
Si       2.71467386      -2.71505430       0.00003435       0.00000000
Si      -2.71489140       0.00081450      -2.71498107       0.00000000
Si      -2.71528236       2.71474479       0.00010306       0.00000000
