10
Lattice="16.28999089631971 0.0 0.0 0.0 16.28999089631971 0.0 0.0 0.0 34.35334932831803" Properties=species:S:1:pos:R:3:initial_magmoms:R:1 pbc="T T T"
Si      -1.35663120       1.35436689      -1.35620228       0.00000000
Si       1.35840681       1.35640314       1.35692370       0.00000000
Si      -1.35637056      -1.35953082       1.35647711       0.00000000
Si       1.35834165      -1.36065483      -1.36200800       0.00000000
Si      -2.71282257       2.71112841      -0.00082448       0.00000000
Si       0.00131949       2.71296918       2.71384741       0.00000000
Si      -2.71383255      -0.00236205       2.71415659       0.00000000
Si      -2.71344159      -2.71629234      -0.00092754       0.00000000
Si       2.71642874      -0.00250866       2.71388176       0.00000000
Si      -2.70949941       0.01282023      -2.72130209       0.00000000
