10
Lattice="16.28999089631971 0.0 0.0 0.0 16.28999089631971 0.0 0.0 0.0 34.35334932831803" Properties=species:S:1:pos:R:3:initial_magmoms:R:1 pbc="T T T"
Si       1.35210258       1.33594290      -1.38399416       0.00000000
Si      -1.36397799      -1.37500632      -1.38237955       0.00000000
Si       1.32222672      -1.33820721       1.48255397       0.00000000
Si      -1.30342806       1.45484361       1.51220093       0.00000000
Si      -0.45916623      -2.05680798       3.02412703       0.00000000
Si      -2.30267295      -0.24423597       2.94109494       0.00000000
Si       2.70141957       2.69125461      -0.00676761       0.00000000
Si      -2.73759966       2.69474067       0.00663020       0.00000000
Si       2.69780319      -2.73973365       0.00137413       0.00000000
Si      -0.00526167       2.69682579      -2.74187976       0.00000000
