10
Lattice="16.28999089631971 0.0 0.0 0.0 16.28999089631971 0.0 0.0 0.0 34.35334932831803" Properties=species:S:1:pos:R:3:initial_magmoms:R:1 pbc="T T T"
Si       1.02571942       1.62152289      -1.40666738       0.00000000
Si       0.06876009       1.51035993       1.97665847       0.00000000
Si      -1.84091661      -1.11814560      -1.27478480       0.00000000
Si       1.62709963      -2.00202471       0.25150101       0.00000000
Si      -0.01058850      -2.41344495       2.12523679       0.00000000
Si       2.27431925       0.19660401      -2.77454981       0.00000000
Si      -0.46534014      -2.51967204      -2.75596464       0.00000000
Si       2.49336925       2.82457197       0.00855399       0.00000000
Si      -2.30356890      -1.58285043       2.55891371       0.00000000
Si       3.55329602      -1.05740019      -1.15334564       0.00000000
