10
Lattice="16.28999089631971 0.0 0.0 0.0 16.28999089631971 0.0 0.0 0.0 34.35334932831803" Properties=species:S:1:pos:R:3:initial_magmoms:R:1 pbc="T T T"
Si       0.24250923      -2.29993623      -0.25672272       0.00000000
Si       2.12332724       0.84209526      -0.46507590       0.00000000
Si      -0.52429365       0.92926305       2.12595821       0.00000000
Si      -1.59835851      -0.21058083      -1.91203979       0.00000000
Si       1.94568153       0.05740596      -2.67746719       0.00000000
Si      -2.07257670      -0.71677629       2.68024981       0.00000000
Si       1.30619233      -2.21842107      -2.36893959       0.00000000
Si      -1.00688490       3.15169146       1.52642322       0.00000000
Si      -3.12448716      -1.72170639       0.85354379       0.00000000
Si      -3.65327685      -0.24149925      -0.90126062       0.00000000
