10
Lattice="16.28999089631971 0.0 0.0 0.0 16.28999089631971 0.0 0.0 0.0 34.35334932831803" Properties=species:S:1:pos:R:3:initial_magmoms:R:1 pbc="T T T"
Si       1.65252995      -0.79612488       1.42233252       0.00000000
Si      -0.24250923       2.29993623       0.25672272       0.00000000
Si      -2.01370464      -1.18426671       0.27932724       0.00000000
Si       1.06368310       0.08151516      -2.11221686       0.00000000
Si      -1.84086774       2.08935540      -1.65531706       0.00000000
Si       1.03781214      -3.09220038       1.41553055       0.00000000
Si      -3.36699639       0.57822984       1.11026652       0.00000000
Si       1.88081801       3.14203149      -0.20835318       0.00000000
Si      -1.34508159      -2.95762869       1.72388639       0.00000000
Si       3.70236581      -0.33231600       0.36304640       0.00000000
