10
Lattice="16.28999089631971 0.0 0.0 0.0 16.28999089631971 0.0 0.0 0.0 34.35334932831803" Properties=species:S:1:pos:R:3:initial_magmoms:R:1 pbc="T T T"
Si      -0.68988411      -1.84927338      -1.55548617       0.00000000
Si      -1.63768813      -0.41142024       1.87373578       0.00000000
Si       1.92619639       0.94462452      -1.40484665       0.00000000
Si      -1.62709963       2.00202471      -0.25150101       0.00000000
Si       2.53638721       0.28499355       2.06082422       0.00000000
Si      -2.09243977      -0.51764733      -3.00746565       0.00000000
Si       0.64721962       2.19862872      -3.02605082       0.00000000
Si      -3.46801624       0.88387911      -1.52628581       0.00000000
Si       2.60470747       2.92661253      -0.05647694       0.00000000
Si      -0.67026264       0.53774919       3.83074412       0.00000000
