10
Lattice="16.28999089631971 0.0 0.0 0.0 16.28999089631971 0.0 0.0 0.0 34.35334932831803" Properties=species:S:1:pos:R:3:initial_magmoms:R:1 pbc="T T T"
Si      -1.24967106       1.43169552      -1.37962784       0.00000000
Si       1.35654975       1.35868374       1.36190838       0.00000000
Si      -1.35654975      -1.35720135       1.36527501       0.00000000
Si       1.38266262      -1.30945536      -1.42290278       0.00000000
Si       0.61836840       2.30448114      -2.67890416       0.00000000
Si      -2.43098928       0.01050705      -2.90843661       0.00000000
Si      -2.70941796      -2.69874801       0.00017520       0.00000000
Si      -2.70345582       2.71057455       0.00358993       0.00000000
Si       2.72987729      -2.70169650      -0.01229507       0.00000000
Si       0.00008145      -2.71156824       2.72147729       0.00000000
