10
Lattice="16.28999089631971 0.0 0.0 0.0 16.28999089631971 0.0 0.0 0.0 34.35334932831803" Properties=species:S:1:pos:R:3:initial_magmoms:R:1 pbc="T T T"
Si      -1.27897677       1.25400420      -1.62120417       0.00000000
Si       0.67851108       1.98198801       1.34836971       0.00000000
Si      -1.92619639      -0.94462452       1.40484665       0.00000000
Si       1.41384168      -1.44984258      -1.59286264       0.00000000
Si       0.61019082      -0.65963097       3.46567088       0.00000000
Si      -2.52757660       2.67892308      -0.25332174       0.00000000
Si       2.60089398       2.65766463      -0.04953756       0.00000000
Si      -2.61608050      -2.79389790      -0.15063952       0.00000000
Si      -3.55329602       1.05740019       1.15334564       0.00000000
Si       2.76001470      -2.82826980      -0.14236036       0.00000000
