10
Lattice="16.28999089631971 0.0 0.0 0.0 16.28999089631971 0.0 0.0 0.0 34.35334932831803" Properties=species:S:1:pos:R:3:initial_magmoms:R:1 pbc="T T T"
Si      -1.35361755      -1.34786718       1.37305261       0.00000000
Si       1.35966114       1.36343620       1.37040740       0.00000000
Si      -1.31289255       1.30835646      -1.47196970       0.00000000
Si       1.47305583      -1.21397967      -1.44768874       0.00000000
Si       0.49399425       2.37776075      -2.59858705       0.00000000
Si       2.36358126       0.74289960      -2.76049726       0.00000000
Si       2.72110302      -2.68413588       0.00843032       0.00000000
Si      -2.70283680      -2.71305063       0.01408145       0.00000000
Si      -2.71287144       2.72382551      -0.01975319       0.00000000
Si       0.00149868      -2.70757719       2.73066338       0.00000000
