10
Lattice="16.28999089631971 0.0 0.0 0.0 16.28999089631971 0.0 0.0 0.0 34.35334932831803" Properties=species:S:1:pos:R:3:initial_magmoms:R:1 pbc="T T T"
Si       1.35598516       1.35748058       1.35754206       0.00000000
Si      -1.35876519      -1.35778779       1.35750771       0.00000000
Si      -1.35834165       1.35534007      -1.36042775       0.00000000
Si       1.35446367      -1.36189287      -1.35864137       0.00000000
Si       0.00310023      -2.69223201      -2.72240483       0.00000000
Si       0.02946244       2.71195010      -2.70352078       0.00000000
Si       2.71354652       0.00010887       2.71501542       0.00000000
Si       2.71278089      -2.71650411       0.00082448       0.00000000
Si      -0.00117865       2.71454021       2.71522154       0.00000000
Si      -0.00157975      -2.71533123       2.71504977       0.00000000
