10
Lattice="16.28999089631971 0.0 0.0 0.0 16.28999089631971 0.0 0.0 0.0 34.35334932831803" Properties=species:S:1:pos:R:3:initial_magmoms:R:1 pbc="T T T"
Si       1.35567009      -1.35736425      -1.35826348       0.00000000
Si      -1.35729909      -1.35698958       1.35767948       0.00000000
Si      -1.35511623       1.35971001      -1.35761077       0.00000000
Si       1.35773892       1.35788553       1.35767948       0.00000000
Si      -2.70433548      -0.00547344      -2.71658194       0.00000000
Si       0.00052128      -2.71464705       2.71515283       0.00000000
Si      -2.71362078      -2.71648782       0.00048095       0.00000000
Si       2.71492436       0.00034209       2.71522154       0.00000000
Si      -2.71497285       0.00013032       2.71539331       0.00000000
Si       0.00073305       2.71528530       2.71518719       0.00000000
