10
Lattice="16.28999089631971 0.0 0.0 0.0 16.28999089631971 0.0 0.0 0.0 34.35334932831803" Properties=species:S:1:pos:R:3:initial_magmoms:R:1 pbc="T T T"
Si      -1.35721764      -1.35594702      -1.35761077       0.00000000
Si       1.36208835      -1.35461124       1.35551522       0.00000000
Si       1.35848826       1.35920796      -1.35781689       0.00000000
Si      -1.35708732       1.36317605       1.35767948       0.00000000
Si       2.71383255      -2.71254564      -0.00065271       0.00000000
Si      -2.71536381      -2.71208952      -0.00051530       0.00000000
Si       0.00045612      -2.71306692      -2.71532460       0.00000000
Si      -2.71373481       0.00172674      -2.71477495       0.00000000
Si       2.71549413       0.00180819      -2.71532460       0.00000000
Si       0.00083079       2.71624088      -2.71504977       0.00000000
