10
Lattice="16.28999089631971 0.0 0.0 0.0 16.28999089631971 0.0 0.0 0.0 34.35334932831803" Properties=species:S:1:pos:R:3:initial_magmoms:R:1 pbc="T T T"
Si       0.71754748       1.84423977       1.32284516       0.00000000
Si      -1.30759830       1.38241827      -1.47104559       0.00000000
Si       1.43034086      -1.30375386      -1.45259783       0.00000000
Si      -1.25102313      -1.56696768       1.46527423       0.00000000
Si       2.72599208       2.66885586       0.02975002       0.00000000
Si      -2.77316073       2.61920394      -0.08694838       0.00000000
Si      -2.72419299      -2.76556959       0.04455632       0.00000000
Si      -2.65248441       0.04815324      -2.84205418       0.00000000
Si       0.05740596      -2.66690106      -2.83240088       0.00000000
Si       2.91793715      -2.63658537      -0.00501559       0.00000000
