10
Lattice="16.28999089631971 0.0 0.0 0.0 16.28999089631971 0.0 0.0 0.0 34.35334932831803" Properties=species:S:1:pos:R:3:initial_magmoms:R:1 pbc="T T T"
Si      -1.46707740      -1.61631009      -0.79613932       0.00000000
Si      -0.93775014       1.03938345       1.87651840       0.00000000
Si       2.25658854      -0.59562756       0.36971095       0.00000000
Si      -0.42305130       1.52380229      -1.76620974       0.00000000
Si       0.88630632       2.58829596       2.05501851       0.00000000
Si      -2.75224437       1.68545204      -1.34682381       0.00000000
Si       0.31604229       0.16011441      -3.48178261       0.00000000
Si       2.86806627       1.39434255       1.46730108       0.00000000
Si      -2.66867667       2.33802292       0.92362467       0.00000000
Si      -0.65878389      -3.62755494       0.07104277       0.00000000
