10
Lattice="16.28999089631971 0.0 0.0 0.0 16.28999089631971 0.0 0.0 0.0 34.35334932831803" Properties=species:S:1:pos:R:3:initial_magmoms:R:1 pbc="T T T"
Si      -1.30554576       1.86968475      -0.54690563       0.00000000
Si       2.04076233       0.14970510       1.20453216       0.00000000
Si       0.97798644      -1.12547610      -1.85638733       0.00000000
Si      -1.65359790      -0.88330896       1.49413106       0.00000000
Si      -0.33102909      -0.89749755       3.43884090       0.00000000
Si      -3.28743603       0.64993842      -1.34383507       0.00000000
Si       1.87398531      -1.55870865       2.80230733       0.00000000
Si      -2.21718303       2.73505842       1.50295987       0.00000000
Si       1.81750788      -3.23405370      -1.17646546       0.00000000
Si       3.10111101      -0.19020204      -2.34671296       0.00000000
