10
Lattice="16.28999089631971 0.0 0.0 0.0 16.28999089631971 0.0 0.0 0.0 34.35334932831803" Properties=species:S:1:pos:R:3:initial_magmoms:R:1 pbc="T T T"
Si      -1.36047075       1.35378045      -1.35520604       0.00000000
Si       1.35705474       1.35615879       1.35737030       0.00000000
Si      -1.35847360      -1.35877008       1.35675194       0.00000000
Si       1.35527913      -1.36008631      -1.36073693       0.00000000
Si      -2.68499632      -0.00430056      -2.70431091       0.00000000
Si       2.71394658       2.71230129       0.00075577       0.00000000
Si      -2.71364426       2.71353933      -0.00082448       0.00000000
Si      -0.00074934       2.71378368       2.71494671       0.00000000
Si       2.71471221      -0.00201996       2.71408788       0.00000000
Si      -2.71563740      -0.00171045       2.71443141       0.00000000
