10
Lattice="16.28999089631971 0.0 0.0 0.0 16.28999089631971 0.0 0.0 0.0 34.35334932831803" Properties=species:S:1:pos:R:3:initial_magmoms:R:1 pbc="T T T"
Si       1.70747382      -1.56530610       0.33978917       0.00000000
Si       0.04711394       0.25673040      -2.34114771       0.00000000
Si      -2.03371106      -1.03353534       0.73423455       0.00000000
Si       1.26060654       1.90164573       0.79043666       0.00000000
Si       2.35925301       0.72197280      -2.51645295       0.00000000
Si       0.65601948      -3.60499329      -0.16809103       0.00000000
Si      -1.52334536       1.99309779      -2.68183007       0.00000000
Si       3.45363150      -0.75406410      -1.03341803       0.00000000
Si      -1.40944568      -3.27674979       1.01077916       0.00000000
Si      -2.79658805       0.31470651       2.51992264       0.00000000
