10
Lattice="16.28999089631971 0.0 0.0 0.0 16.28999089631971 0.0 0.0 0.0 34.35334932831803" Properties=species:S:1:pos:R:3:initial_magmoms:R:1 pbc="T T T"
Si      -1.34967863      -1.34385984       1.36378751       0.00000000
Si      -1.30484692       1.43294985      -1.36006360       0.00000000
Si       1.37095011       1.37114559       1.36158889       0.00000000
Si       1.00173726      -1.70616573      -1.36731560       0.00000000
Si       2.28170772      -0.51201099      -2.95997696       0.00000000
Si      -2.68947081      -2.69293248      -0.01422917       0.00000000
Si       2.71819827      -2.70024669      -0.00714894       0.00000000
Si       0.01379763      -2.70254358       2.71727587       0.00000000
Si      -2.70097114       0.00982287       2.71978367       0.00000000
Si       2.71959921       2.70966231      -0.00444189       0.00000000
