10
Lattice="16.28999089631971 0.0 0.0 0.0 16.28999089631971 0.0 0.0 0.0 34.35334932831803" Properties=species:S:1:pos:R:3:initial_magmoms:R:1 pbc="T T T"
Si      -1.35724481      -1.35648459      -1.35692370       0.00000000
Si       1.35655627      -1.35871632       1.35757642       0.00000000
Si       1.35763141       1.35879777      -1.35695806       0.00000000
Si      -1.35865183       1.36005210       1.36606170       0.00000000
Si       2.71527259      -2.71164969      -0.00037789       0.00000000
Si      -2.71516900      -2.71265967      -0.00027483       0.00000000
Si       0.00002606      -2.71371852      -2.71412223       0.00000000
Si       2.71465357       0.00154755      -2.71408788       0.00000000
Si      -2.71526674       0.00242721      -2.71388176       0.00000000
Si       2.71380649       2.71593396       0.00075577       0.00000000
