10
Lattice="16.28999089631971 0.0 0.0 0.0 16.28999089631971 0.0 0.0 0.0 34.35334932831803" Properties=species:S:1:pos:R:3:initial_magmoms:R:1 pbc="T T T"
Si       1.36013355      -1.35283563      -1.35764512       0.00000000
Si      -1.35709058      -1.35640314       1.35740465       0.00000000
Si      -1.35831722       1.35461124      -1.35946585       0.00000000
Si       1.35884664       1.35839052       1.35699241       0.00000000
Si      -2.71178770      -2.71415835       0.00054965       0.00000000
Si       0.00122175      -2.71401174       2.71415659       0.00000000
Si      -2.71436063       0.00117288       2.71422529       0.00000000
Si       2.71655298      -2.71270854      -0.00116801       0.00000000
Si      -2.71278089       2.71650411      -0.00082448       0.00000000
Si       2.71591767       0.00128691       2.71446577       0.00000000
