10
Lattice="16.28999089631971 0.0 0.0 0.0 16.28999089631971 0.0 0.0 0.0 34.35334932831803" Properties=species:S:1:pos:R:3:initial_magmoms:R:1 pbc="T T T"
Si       0.31185576      -1.45225350       1.72876456       0.00000000
Si      -0.77625108       1.80062722       1.28553740       0.00000000
Si      -1.06155414      -0.96692553      -1.87462897       0.00000000
Si       2.07148527      -0.03336192      -1.20199001       0.00000000
Si       0.49576986       0.44285994      -2.94803432       0.00000000
Si       2.38777191      -0.52331625       2.33063558       0.00000000
Si       1.06240122       3.22073567       1.11115970       0.00000000
Si      -3.00721382       2.08270649       0.50513193       0.00000000
Si      -1.31079114      -0.91525365       3.37305420       0.00000000
Si       0.21898647      -2.96139168      -2.34090724       0.00000000
