10
Lattice="10.86 0.0 0.0 0.0 10.86 0.0 0.0 0.0 10.86" Properties=species:S:1:pos:R:3:initial_magmoms:R:1 pbc="T T T"
Si       1.30386246       1.35703302       1.18506492       0.00000000
Si      -1.41113754      -1.35796698       1.18506492       0.00000000
Si       1.30386246      -1.35796698      -1.52993508       0.00000000
Si      -1.49765916       1.11723336      -1.57831638       0.00000000
Si       2.66136246      -0.00046698       2.54256492       0.00000000
Si      -0.05363754       2.71453302       2.54256492       0.00000000
Si      -0.05363754      -2.71546698       2.54256492       0.00000000
Si      -2.76863754      -0.00046698       2.54256492       0.00000000
Si       2.81757270       2.49364062       0.04333140       0.00000000
Si       2.56848774       0.08227536      -2.78640450       0.00000000
