10
Lattice="10.86 0.0 0.0 0.0 10.86 0.0 0.0 0.0 10.86" Properties=species:S:1:pos:R:3:initial_magmoms:R:1 pbc="T T T"
Si       1.08786792      -1.46907564      -1.23098100       0.00000000
Si       1.08786792       1.24592436       1.48401900       0.00000000
Si      -1.62713208       1.24592436      -1.23098100       0.00000000
Si       2.44536792      -0.11157564      -2.58848100       0.00000000
Si       2.44536792       2.60342436       0.12651900       0.00000000
Si      -0.26963208       2.60342436      -2.58848100       0.00000000
Si       2.44536792      -2.82657564       0.12651900       0.00000000
Si       2.44536792      -0.11157564       2.84151900       0.00000000
Si      -0.26963208      -2.82657564      -2.58848100       0.00000000
Si      -0.43469322       2.68331052       2.77833552       0.00000000
