10
Lattice="10.86 0.0 0.0 0.0 10.86 0.0 0.0 0.0 10.86" Properties=species:S:1:pos:R:3:initial_magmoms:R:1 pbc="T T T"
Si      -1.35750000      -1.35750000       1.35750000       0.00000000
Si       1.35750000      -1.35750000      -1.35750000       0.00000000
Si       1.35750000       1.35750000       1.35750000       0.00000000
Si      -1.35750000       1.35750000      -1.35750000       0.00000000
Si      -2.72783652       2.57498202       0.13409928       0.00000000
Si      -2.51471988       0.00983916       2.83932528       0.00000000
Si       2.71113384       2.65005720       0.14078904       0.00000000
Si       2.71500000      -2.71500000       0.00000000       0.00000000
Si      -2.71500000       0.00000000      -2.71500000       0.00000000
Si      -2.71500000      -2.71500000       0.00000000       0.00000000
