10
Lattice="10.86 0.0 0.0 0.0 10.86 0.0 0.0 0.0 10.86" Properties=species:S:1:pos:R:3:initial_magmoms:R:1 pbc="T T T"
Si      -1.35750000      -1.35750000       1.35750000       0.00000000
Si       1.35750000       1.35750000       1.35750000       0.00000000
Si      -1.35750000       1.35750000      -1.35750000       0.00000000
Si       1.35750000      -1.35750000      -1.35750000       0.00000000
Si       2.52947862       0.05452806       2.65260930       0.00000000
Si      -2.51471988      -2.70516084       0.12432528       0.00000000
Si       2.71113384      -0.06494280      -2.57421096       0.00000000
Si      -2.72783652      -0.14001798      -2.58090072       0.00000000
Si      -2.66590194       2.71463076       0.05301852       0.00000000
Si       0.00000000      -2.71500000       2.71500000       0.00000000
