10
Lattice="10.86 0.0 0.0 0.0 10.86 0.0 0.0 0.0 10.86" Properties=species:S:1:pos:R:3:initial_magmoms:R:1 pbc="T T T"
Si       1.30840194       1.35786924       1.30448148       0.00000000
Si       1.30840194      -1.35713076      -1.41051852       0.00000000
Si      -1.40659806       1.35786924      -1.41051852       0.00000000
Si      -2.69079306      -0.14813040       2.55143754       0.00000000
Si       2.66590194       0.00036924       2.66198148       0.00000000
Si      -0.04909806       2.71536924       2.66198148       0.00000000
Si       2.66590194      -2.71463076      -0.05301852       0.00000000
Si       2.66590194       2.71536924      -0.05301852       0.00000000
Si       2.66590194       0.00036924      -2.76801852       0.00000000
Si      -2.76409806       2.71536924      -0.05301852       0.00000000
