10
Lattice="10.86 0.0 0.0 0.0 10.86 0.0 0.0 0.0 10.86" Properties=species:S:1:pos:R:3:initial_magmoms:R:1 pbc="T T T"
Si      -1.27929714      -1.24232970       1.13136222       0.00000000
Si       1.08460992       1.70410776       0.87659748       0.00000000
Si       1.43570286      -1.24232970      -1.58363778       0.00000000
Si      -1.27929714       1.47267030      -1.58363778       0.00000000
Si      -2.63679714       0.11517030       2.48886222       0.00000000
Si      -2.63679714      -2.59982970      -0.22613778       0.00000000
Si      -0.06274908       2.88300420       2.48298696       0.00000000
Si       2.90275854       2.54758224      -0.19427454       0.00000000
Si      -2.63679714       2.83017030      -0.22613778       0.00000000
Si       2.90368164      -2.58123738      -0.32897112       0.00000000
