10
Lattice="16.290000149 0.0 0.0 0.0 16.290000149 0.0 0.0 0.0 29.1751946751" Properties=species:S:1:pos:R:3:initial_magmoms:R:1 pbc="T T T"
Si       1.32806833      -1.36078516       1.37438507       0.00000000
Si      -1.37023988      -1.36884871      -1.32504982       0.00000000
Si      -1.36576013       1.35153244       1.34888595       0.00000000
Si       1.36784851       1.36536265      -1.34380947       0.00000000
Si      -2.69533365       0.01480761      -2.68502234       0.00000000
Si       0.00974468      -2.71718669      -2.66573754       0.00000000
Si       2.68364069       0.00625536       2.71265125       0.00000000
Si      -0.02291840       2.71085150       2.70343189       0.00000000
Si       2.72700467       0.00998577      -2.69785943       0.00000000
Si       2.71237625      -2.71542574       0.03994084       0.00000000
