10
Lattice="16.290000149 0.0 0.0 0.0 16.290000149 0.0 0.0 0.0 29.1751946751" Properties=species:S:1:pos:R:3:initial_magmoms:R:1 pbc="T T T"
Si      -1.36752922      -1.35821134      -1.32878424       0.00000000
Si      -1.43824411       1.33400440       1.28131620       0.00000000
Si       1.35369901       1.35138583      -1.36213149       0.00000000
Si       1.36259335      -1.32626665       1.38100784       0.00000000
Si      -0.08718408       2.67744071       2.59239110       0.00000000
Si      -0.09436797      -2.62514981       2.68405956       0.00000000
Si       0.00386073      -2.71451675      -2.66168219       0.00000000
Si      -2.71021619       0.02523321      -2.67268123       0.00000000
Si       2.73240317      -0.01435149      -2.67411082       0.00000000
Si       2.73114884       2.69145011      -0.02999210       0.00000000
