10
Lattice="16.290000149 0.0 0.0 0.0 16.290000149 0.0 0.0 0.0 29.1751946751" Properties=species:S:1:pos:R:3:initial_magmoms:R:1 pbc="T T T"
Si      -1.34286616       1.35790183      -1.36892931       0.00000000
Si       1.32770343      -1.34915410      -1.39515781       0.00000000
Si       1.34830214       1.37821546       1.35136584       0.00000000
Si      -1.34459290      -1.37191123       1.36239407       0.00000000
Si       2.66651012      -2.70826139      -0.03180096       0.00000000
Si      -2.68703552       2.72305271      -0.01817615       0.00000000
Si      -2.71010216      -2.71147052      -0.00942359       0.00000000
Si      -2.72878680      -0.02857266       2.69759685       0.00000000
Si       2.71834490       0.03572397       2.70874177       0.00000000
Si       2.70847316       2.72865648      -0.00189639       0.00000000
