10
Lattice="16.290000149 0.0 0.0 0.0 16.290000149 0.0 0.0 0.0 29.1751946751" Properties=species:S:1:pos:R:3:initial_magmoms:R:1 pbc="T T T"
Si       1.72222769      -0.74961694      -1.38334186       0.00000000
Si       1.35638686       1.34946361       1.33998752       0.00000000
Si      -1.43450882       1.18695457      -1.44761481       0.00000000
Si      -1.19326858      -1.69065767       1.18462960       0.00000000
Si      -1.65411268      -0.66023371      -2.89622158       0.00000000
Si       0.66132514      -0.84299122      -3.48754442       0.00000000
Si       2.56534922      -2.59665860      -0.26164315       0.00000000
Si      -2.65339146      -0.40721742       2.52800144       0.00000000
Si      -0.08780310       2.54449802       2.69665916       0.00000000
Si       2.63713925      -0.14566518       2.67543158       0.00000000
