10
Lattice="16.290000149 0.0 0.0 0.0 16.290000149 0.0 0.0 0.0 29.1751946751" Properties=species:S:1:pos:R:3:initial_magmoms:R:1 pbc="T T T"
Si       0.34401222      -0.88534522      -2.13390291       0.00000000
Si      -1.82355149       1.45702648       0.16787407       0.00000000
Si       1.62212563       1.68609647       0.07250036       0.00000000
Si       0.22750614      -1.51264054       1.84267612       0.00000000
H       -0.88244560      -1.45632601       2.87069328       0.00000000
Si       1.06065820       2.72214047       2.08173767       0.00000000
Si       2.29387637      -0.81998974       2.73639986       0.00000000
Si       1.39870828       0.87794956      -3.31564417       0.00000000
Si      -3.63407097       0.13776453       0.79843755       0.00000000
H       -1.83876635       0.34046100       3.27255241       0.00000000
