10
Lattice="16.290000149 0.0 0.0 0.0 16.290000149 0.0 0.0 0.0 29.1751946751" Properties=species:S:1:pos:R:3:initial_magmoms:R:1 pbc="T T T"
Si      -0.89793739       0.90497467      -0.81104124       0.00000000
Si       0.91316854      -1.55869237       1.49449935       0.00000000
H       -2.01479609      -0.34889922       1.42229074       0.00000000
Si       1.93828196       0.59359132       1.88136243       0.00000000
Si       1.88599106      -1.96169720      -0.66026383       0.00000000
Si      -1.39549915      -1.65164474       1.86376979       0.00000000
Si      -2.21128607      -0.56071810      -2.09121960       0.00000000
Si       0.45041850       2.21410424      -2.20272720       0.00000000
Si      -2.04024107       2.33425928       0.65168632       0.00000000
Si       3.05983218       2.03444183       0.33020485       0.00000000
