10
Lattice="16.290000149 0.0 0.0 0.0 16.290000149 0.0 0.0 0.0 29.1751946751" Properties=species:S:1:pos:R:3:initial_magmoms:R:1 pbc="T T T"
Si       1.25848396       1.36866952      -1.42609519       0.00000000
Si       1.37481085      -1.26452755       1.41758478       0.00000000
Si      -0.81011800      -1.85942207      -1.18068424       0.00000000
Si      -1.42690627       1.37477827       1.29481848       0.00000000
Si      -2.68389155      -2.66128103       0.01600551       0.00000000
Si      -0.05238864      -2.65456955       2.69991920       0.00000000
Si       2.66251907      -2.71319726       0.08917982       0.00000000
Si       2.64753227       2.74722708      -0.08434257       0.00000000
Si      -0.08348625       2.74449036       2.65811114       0.00000000
Si      -0.19285731       2.78642082      -2.64299256       0.00000000
