10
Lattice="16.290000149 0.0 0.0 0.0 16.290000149 0.0 0.0 0.0 29.1751946751" Properties=species:S:1:pos:R:3:initial_magmoms:R:1 pbc="T T T"
Si       1.35634777      -1.40727682       1.31343809       0.00000000
Si      -1.46012289       1.28344024       1.34337184       0.00000000
Si       1.19326858       1.69065767      -1.18462960       0.00000000
Si      -1.10757666      -1.70401547      -1.25237441       0.00000000
Si       2.36398202      -2.64438830      -0.53163040       0.00000000
Si      -2.77740267      -2.48798801       0.19529875       0.00000000
Si       2.52917891       0.06125040       2.76329355       0.00000000
Si      -2.85952056       2.45581526      -0.11967665       0.00000000
Si      -0.13226666      -2.60617196       2.74780736       0.00000000
Si       0.30681564      -3.65275560      -1.25380399       0.00000000
