10
Lattice="16.290000149 0.0 0.0 0.0 16.290000149 0.0 0.0 0.0 29.1751946751" Properties=species:S:1:pos:R:3:initial_magmoms:R:1 pbc="T T T"
Si       1.34513047       1.37696113      -1.31478015       0.00000000
Si       1.54820161      -1.32553360       1.18072013       0.00000000
Si      -1.36884871       1.36555813       1.34713544       0.00000000
Si      -1.40507767      -1.32615262      -1.35944737       0.00000000
Si       2.57551418       2.81079554       0.11048646       0.00000000
Si      -0.05391990       2.71832536      -2.67615308       0.00000000
Si       2.63147033      -2.74571211      -0.31684261       0.00000000
Si       2.64903095       0.03200985      -2.74888684       0.00000000
Si      -2.78161527      -2.64613133       0.00367607       0.00000000
Si      -2.71946891       0.07618833       2.72055773       0.00000000
