10
Lattice="16.290000149 0.0 0.0 0.0 16.290000149 0.0 0.0 0.0 29.1751946751" Properties=species:S:1:pos:R:3:initial_magmoms:R:1 pbc="T T T"
Si      -1.48465432       1.80155999      -0.11821789       0.00000000
Si       1.12629061      -1.11475729      -1.75322497       0.00000000
Si      -1.66068407      -1.52332678       0.73366862       0.00000000
Si       1.86180041       0.83981467       1.25383317       0.00000000
H       -0.75336364       0.55462564       2.49932223       0.00000000
H       -1.40284594       0.97894756       2.45544273       0.00000000
Si       2.46874952      -2.52791480      -0.38111557       0.00000000
H        1.36625860       3.20026827      -0.96765368       0.00000000
H        0.80804917       3.33226614       1.35985582       0.00000000
Si       2.55464669       2.70014897      -0.16504408       0.00000000
