10
Lattice="16.290000149 0.0 0.0 0.0 16.290000149 0.0 0.0 0.0 29.1751946751" Properties=species:S:1:pos:R:3:initial_magmoms:R:1 pbc="T T T"
H       -0.90280810       0.74171629       0.97643542       0.00000000
Si       1.15215913       1.64054963      -1.18139116       0.00000000
Si       1.39939768      -1.17237502       1.46304849       0.00000000
Si      -1.59184252      -1.13033053      -1.34176720       0.00000000
Si      -1.98332381       2.45348579       1.76458113       0.00000000
Si      -0.61571314       2.79911073      -2.21643954       0.00000000
Si       2.61828032       0.42179697      -2.51256777       0.00000000
Si      -0.06087573      -2.35098911       2.87913075       0.00000000
Si      -2.23039424       2.96730498      -0.53568575       0.00000000
Si       2.85952056      -2.45581526       0.11967665       0.00000000
