10
Lattice="16.290000149 0.0 0.0 0.0 16.290000149 0.0 0.0 0.0 29.1751946751" Properties=species:S:1:pos:R:3:initial_magmoms:R:1 pbc="T T T"
Si      -0.92779696       1.04343967      -1.83395274       0.00000000
Si       1.07150734       1.76005307       1.06361090       0.00000000
Si       1.33348312      -1.54619794      -1.15773008       0.00000000
Si      -1.93846115      -1.02824110       0.90250547       0.00000000
H        0.51363999      -1.28213704       2.39671307       0.00000000
Si       0.69225985      -2.66979419       1.78639717       0.00000000
Si      -1.69844429      -1.00242145      -2.71367238       0.00000000
Si      -0.47625444      -2.87346806      -1.76215258       0.00000000
Si      -2.22417146       2.54422109      -0.51211219       0.00000000
Si      -1.20788722      -3.21815143       0.50096727       0.00000000
