10
Lattice="16.290000149 0.0 0.0 0.0 16.290000149 0.0 0.0 0.0 29.1751946751" Properties=species:S:1:pos:R:3:initial_magmoms:R:1 pbc="T T T"
Si      -2.24573942       0.50692851      -0.27803961       0.00000000
Si       0.93207634      -0.81323102      -1.99593342       0.00000000
Si       0.28398031      -1.82412082       1.57201784       0.00000000
Si       1.33353688       1.97881148       0.48550441       0.00000000
Si       2.96665338       0.79607602       1.70085492       0.00000000
Si       1.63070232      -0.61072514       3.05365968       0.00000000
Si       2.77208562      -1.98830855      -1.05748411       0.00000000
Si      -0.94442905      -1.69994785      -3.11643594       0.00000000
Si      -2.97616674       1.13995792       1.90223611       0.00000000
H       -1.98935111      -0.58549030      -3.07847902       0.00000000
