10
Lattice="16.290000149 0.0 0.0 0.0 16.290000149 0.0 0.0 0.0 29.1751946751" Properties=species:S:1:pos:R:3:initial_magmoms:R:1 pbc="T T T"
Si      -1.36862065      -1.34881201      -1.33797443       0.00000000
Si      -1.36537894       1.34724817       1.35014048       0.00000000
Si       1.32509377      -1.38365632       1.35997252       0.00000000
Si       1.38501670       1.33177267      -1.36773313       0.00000000
Si       0.07421724      -2.68045111      -2.62072021       0.00000000
Si       2.69533365      -0.01480761       2.68502234       0.00000000
Si      -0.00656487       2.71252937       2.68114204       0.00000000
Si      -2.69457779       2.71388144      -0.02587840       0.00000000
Si       0.05520681       2.74046673      -2.67921648       0.00000000
Si      -2.72129339      -0.03005505       2.70643693       0.00000000
