10
Lattice="16.290000149 0.0 0.0 0.0 16.290000149 0.0 0.0 0.0 29.1751946751" Properties=species:S:1:pos:R:3:initial_magmoms:R:1 pbc="T T T"
Si       1.04492206      -1.11445755      -0.03795693       0.00000000
Si      -0.32943267       2.55436488       0.86819544       0.00000000
Si      -1.86500954       1.83468896      -0.74110830       0.00000000
Si      -0.25638831       1.09241881       2.80043941       0.00000000
H        1.22567590       2.15938124      -1.75544229       0.00000000
Si      -1.83027926      -0.59500855       2.35852274       0.00000000
Si       2.92142745      -0.22774072       1.08254560       0.00000000
Si      -1.24248718       0.76108021      -2.78760233       0.00000000
Si       1.31198032      -1.84344646      -2.24780287       0.00000000
Si       0.22206528      -3.05327219       0.97591026       0.00000000
