10
Lattice="16.290000149 0.0 0.0 0.0 16.290000149 0.0 0.0 0.0 29.1751946751" Properties=species:S:1:pos:R:3:initial_magmoms:R:1 pbc="T T T"
Si       1.53797149      -1.27171144      -1.19790432       0.00000000
Si       1.39497787       1.32110272       1.36625103       0.00000000
Si      -1.21689559      -1.43477434       1.44299929       0.00000000
Si      -1.46974897       1.21055878      -1.45616314       0.00000000
H        0.35569215      -1.80950951      -2.24870730       0.00000000
Si      -2.66954006       2.68100822      -0.02465304       0.00000000
Si       2.85525128       2.49971681      -0.04983123       0.00000000
Si      -2.64855854      -0.06356358       2.72816954       0.00000000
Si      -0.13598892       2.54176130      -2.85464692       0.00000000
Si       0.06457356       2.76107358       2.68063147       0.00000000
