10
Lattice="16.290000149 0.0 0.0 0.0 16.290000149 0.0 0.0 0.0 29.1751946751" Properties=species:S:1:pos:R:3:initial_magmoms:R:1 pbc="T T T"
Si       1.39233889       1.43599609      -1.17748168       0.00000000
Si       1.70090408      -1.59811417       0.01546285       0.00000000
Si      -0.95780314       1.26949600       1.75471291       0.00000000
Si      -1.59477472      -0.81394615      -1.56026024       0.00000000
Si      -2.07337493       1.21533175      -2.61972826       0.00000000
Si      -0.17498718       2.71656929      -2.30271059       0.00000000
Si       0.62939674      -3.35816724      -1.04814804       0.00000000
Si      -2.40914441       2.68724729       0.53781554       0.00000000
Si      -0.29840022      -2.31472757      -2.88210078       0.00000000
Si       2.35388873      -2.02227320       2.14729725       0.00000000
