10
Lattice="16.290000149 0.0 0.0 0.0 16.290000149 0.0 0.0 0.0 29.1751946751" Properties=species:S:1:pos:R:3:initial_magmoms:R:1 pbc="T T T"
Si      -1.33335280      -1.33972382       1.32959239       0.00000000
Si       1.49820760      -1.23559651      -1.27996831       0.00000000
Si      -1.24910092       1.37078722      -1.41333979       0.00000000
Si       1.41947803       1.42921945       1.23588167       0.00000000
Si       0.65855584       2.16088481      -2.53603046       0.00000000
H       -0.55229617      -0.45714627      -3.33476268       0.00000000
Si       2.36410256       0.49223493      -2.66290288       0.00000000
Si       0.10029753      -2.68644908       2.59139039       0.00000000
Si      -2.66396888       0.07952778       2.61581003       0.00000000
Si      -2.69374700      -2.62267671      -0.07996337       0.00000000
