10
Lattice="16.290000149 0.0 0.0 0.0 16.290000149 0.0 0.0 0.0 29.1751946751" Properties=species:S:1:pos:R:3:initial_magmoms:R:1 pbc="T T T"
Si      -1.38419389       1.34333857       1.33520278       0.00000000
Si      -1.36550926      -1.33955929      -1.37181765       0.00000000
Si       1.34459290       1.37191123      -1.36239407       0.00000000
Si       1.33926607      -1.36757809       1.37415167       0.00000000
Si      -2.68045436       2.64717389      -0.12524911       0.00000000
Si       2.66094709      -2.70327665      -0.03118828       0.00000000
Si       0.00392589       2.70200603       2.66416208       0.00000000
Si      -2.73277784      -0.04680117       2.68227987       0.00000000
Si       2.73199430       0.00579924       2.68487647       0.00000000
Si      -0.01803303      -2.68679117      -2.73850047       0.00000000
