10
Lattice="16.290000149 0.0 0.0 0.0 16.290000149 0.0 0.0 0.0 29.1751946751" Properties=species:S:1:pos:R:3:initial_magmoms:R:1 pbc="T T T"
Si      -1.88556752      -1.34271955      -0.38852607       0.00000000
Si       0.52308819       1.25460694      -1.93122284       0.00000000
Si       1.93551266      -1.48833586       0.31331242       0.00000000
H       -0.90099991      -0.99505837       2.06624564       0.00000000
Si      -1.61617978       1.52999591       1.07886952       0.00000000
H       -2.79464727      -1.41586165       0.82828378       0.00000000
Si       0.19355778       2.85726603       1.68329203       0.00000000
Si      -2.77630473       0.08076582      -1.97874923       0.00000000
Si      -0.01358586      -1.84231757       2.95527217       0.00000000
Si       1.55313748      -0.36400005      -3.25207142       0.00000000
