10
Lattice="16.290000149 0.0 0.0 0.0 16.290000149 0.0 0.0 0.0 29.1751946751" Properties=species:S:1:pos:R:3:initial_magmoms:R:1 pbc="T T T"
Si       1.32045112       1.34102539       1.39411042       0.00000000
Si      -1.35889715       1.33861447      -1.38135502       0.00000000
Si       1.41964093      -1.38109879      -1.28408493       0.00000000
Si      -1.37414785      -1.36083403       1.36160925       0.00000000
Si       0.03207501      -2.65544921      -2.66185490       0.00000000
Si       2.67662621       2.65496051      -0.00527196       0.00000000
Si       0.12971727       2.53750961      -2.81572430       0.00000000
Si       2.62225019      -2.77804776       0.15783489       0.00000000
Si       2.67291209      -0.02608029       2.75046522       0.00000000
Si      -2.86488975      -0.04548168      -2.55049581       0.00000000
