10
Lattice="16.290000149 0.0 0.0 0.0 16.290000149 0.0 0.0 0.0 29.1751946751" Properties=species:S:1:pos:R:3:initial_magmoms:R:1 pbc="T T T"
Si       1.42581484       1.38989539       1.17926137       0.00000000
Si      -1.31994613       1.44127405      -1.27548116       0.00000000
Si       1.43448112      -1.32159142      -1.28195805       0.00000000
Si      -1.38385180      -1.33560082       1.34042514       0.00000000
Si       0.05703129      -2.66165570      -2.61409744       0.00000000
Si      -2.66864411       0.07939746      -2.62352103       0.00000000
Si       0.01078398      -2.61843833       2.70115622       0.00000000
Si      -2.56740176       0.11588706       2.75165849       0.00000000
Si       2.72122823       0.09661599       2.60642437       0.00000000
Si       0.06814107       2.80091892      -2.58953193       0.00000000
