10
Lattice="16.290000149 0.0 0.0 0.0 16.290000149 0.0 0.0 0.0 29.1751946751" Properties=species:S:1:pos:R:3:initial_magmoms:R:1 pbc="T T T"
H       -0.06519258      -1.07426035      -1.06215214       0.00000000
Si       2.19660389       0.18718839       0.65860084       0.00000000
Si      -1.62030115      -0.67927672       1.56148559       0.00000000
Si      -0.44554779       2.13444614      -0.88990179       0.00000000
H       -1.88636573       2.42585795      -0.44903542       0.00000000
H        1.07945197       0.72604531      -2.98570190       0.00000000
Si      -3.15587802      -1.39895263      -0.04781814       0.00000000
H       -1.29086848      -3.23364159       0.69329015       0.00000000
Si       2.99517717      -2.07239753       0.45236139       0.00000000
Si       3.51104889      -0.08151516      -1.25222853       0.00000000
