10
Lattice="16.290000149 0.0 0.0 0.0 16.290000149 0.0 0.0 0.0 29.1751946751" Properties=species:S:1:pos:R:3:initial_magmoms:R:1 pbc="T T T"
Si      -0.56146744       1.03604401       2.00923731       0.00000000
Si      -1.62212563      -1.68609647      -0.07250036       0.00000000
Si       2.19406754      -0.72267328      -0.46659889       0.00000000
Si       0.03911229       2.14577095      -0.97920706       0.00000000
Si       0.68100346       2.82288109       1.16624923       0.00000000
Si       1.90369829       0.16255791      -2.70818745       0.00000000
Si       1.93144016      -2.75574675       0.72806698       0.00000000
Si      -3.44567712      -0.22906998       0.09537371       0.00000000
Si      -0.22341735      -0.80814691      -3.38814453       0.00000000
Si      -2.79604821       1.53870454       1.68737656       0.00000000
