10
Lattice="16.290000149 0.0 0.0 0.0 16.290000149 0.0 0.0 0.0 29.1751946751" Properties=species:S:1:pos:R:3:initial_magmoms:R:1 pbc="T T T"
Si      -1.32045112      -1.34102539      -1.39411042       0.00000000
Si       1.35617509       1.31393512      -1.39938238       0.00000000
Si      -1.37894851       1.35923761       1.33581546       0.00000000
Si       1.35246097      -1.36710568       1.35635480       0.00000000
Si       2.69959511       2.68364720      -0.03608972       0.00000000
Si      -2.69459897      -2.70185942      -0.03250117       0.00000000
Si       0.09918981      -2.72212418      -2.67819535       0.00000000
Si      -0.01881495       2.71368596       2.68934027       0.00000000
Si       2.69941592      -0.01032786       2.71874887       0.00000000
Si      -0.01790271       2.66501144      -2.75997925       0.00000000
