10
Lattice="16.290000149 0.0 0.0 0.0 16.290000149 0.0 0.0 0.0 29.1751946751" Properties=species:S:1:pos:R:3:initial_magmoms:R:1 pbc="T T T"
Si       1.31801332       1.33488423      -1.35860129       0.00000000
Si      -1.27426897      -1.46657242      -1.29429916       0.00000000
Si      -1.29748222       1.40883056       1.34795234       0.00000000
Si       1.21800331      -1.51723432       1.33992917       0.00000000
H       -1.91640449      -2.29169351      -0.21400005       0.00000000
Si      -2.58769910      -0.02897991       2.62786813       0.00000000
Si       2.54478799       2.68974455       0.09709505       0.00000000
Si      -0.15441291       2.62583888      -2.62664278       0.00000000
Si       2.69491011      -0.06550209      -2.65237530       0.00000000
Si       2.57943682      -2.81269659      -0.06228904       0.00000000
