10
Lattice="16.290000149 0.0 0.0 0.0 16.290000149 0.0 0.0 0.0 29.1751946751" Properties=species:S:1:pos:R:3:initial_magmoms:R:1 pbc="T T T"
Si      -1.33507775      -1.37668420      -1.34532658       0.00000000
Si       1.34308771      -1.35790183       1.36361942       0.00000000
Si       1.33113085       1.35757603      -1.38319598       0.00000000
Si      -1.38828920       1.36122499       1.32294920       0.00000000
Si      -2.66488764       0.03200985      -2.65680993       0.00000000
Si      -0.03632996       2.71362080       2.68449719       0.00000000
Si       2.69126441       2.71202438      -0.02967117       0.00000000
Si       2.69108522       0.00373041       2.71440176       0.00000000
Si       2.70224387      -2.71327871       0.00956946       0.00000000
Si      -2.72009445      -2.70845687       0.02240655       0.00000000
