10
Lattice="16.290000149 0.0 0.0 0.0 16.290000149 0.0 0.0 0.0 29.1751946751" Properties=species:S:1:pos:R:3:initial_magmoms:R:1 pbc="T T T"
Si       1.35668008       1.35431803      -1.33365650       0.00000000
Si       1.39528738      -1.45173223       1.19063969       0.00000000
Si      -1.37523439      -1.36669843      -1.33674907       0.00000000
Si      -1.30390048       1.34495128       1.43410669       0.00000000
Si      -0.01756062      -2.77772196       2.43204423       0.00000000
Si       2.66367566       2.66917354       0.11177017       0.00000000
Si      -0.01731627       2.70092764      -2.67043474       0.00000000
Si       2.70992297      -0.03062520      -2.67107660       0.00000000
Si      -2.70295085       2.68631551       0.07273376       0.00000000
Si      -2.64903095      -0.03200985       2.74888684       0.00000000
