10
Lattice="16.290000149 0.0 0.0 0.0 16.290000149 0.0 0.0 0.0 29.1751946751" Properties=species:S:1:pos:R:3:initial_magmoms:R:1 pbc="T T T"
Si       0.17861985      -1.38765715      -0.61031590       0.00000000
Si      -0.69680476       1.82793350       1.92142289       0.00000000
Si      -0.51363999       1.28213704      -2.39671307       0.00000000
Si      -2.53594577       0.94656304       0.73553875       0.00000000
Si      -2.45210114       0.25389594      -1.49420760       0.00000000
Si       1.21085200       2.61803108       0.79873222       0.00000000
Si       2.05050377      -0.77845024       2.05479437       0.00000000
Si       1.01230948      -2.63275724       1.10239932       0.00000000
Si       2.91639873       0.94938121       0.67185980       0.00000000
Si       2.07293510      -1.37107556      -1.95033259       0.00000000
