10
Lattice="16.290000149 0.0 0.0 0.0 16.290000149 0.0 0.0 0.0 29.1751946751" Properties=species:S:1:pos:R:3:initial_magmoms:R:1 pbc="T T T"
Si       1.35195924       1.35239581       1.36154799       0.00000000
Si       1.38828920      -1.36122499      -1.32294920       0.00000000
Si      -1.33837012      -1.35715249       1.38059939       0.00000000
Si      -1.34540740       1.38061009      -1.35469181       0.00000000
Si      -2.68934870       2.71134020       0.03232612       0.00000000
Si       0.05321145      -2.73790920      -2.66827578       0.00000000
Si      -2.70163136       0.03101616      -2.70947115       0.00000000
Si       2.71065602       2.70440066      -0.00096278       0.00000000
Si       2.69076593      -0.00671148       2.72490483       0.00000000
Si      -2.69718419      -2.72243369       0.04959783       0.00000000
