10
Lattice="16.290000149 0.0 0.0 0.0 16.290000149 0.0 0.0 0.0 29.1751946751" Properties=species:S:1:pos:R:3:initial_magmoms:R:1 pbc="T T T"
Si      -1.36907677       1.34817670      -1.34135875       0.00000000
Si      -1.37521810      -1.34244262       1.34205896       0.00000000
Si       1.35523027      -1.35293338      -1.36586591       0.00000000
Si       1.35689185       1.36334269       1.35801779       0.00000000
Si       0.01070253       2.69187365      -2.67647401       0.00000000
Si      -0.01332522      -2.73729018       2.64630686       0.00000000
Si       2.71798652      -2.69262299      -0.00189639       0.00000000
Si      -2.72826552       0.02726946       2.69234531       0.00000000
Si       2.71129133       0.01759320      -2.71168847       0.00000000
Si      -2.72953614      -2.69606018      -0.01835120       0.00000000
