10
Lattice="16.290000149 0.0 0.0 0.0 16.290000149 0.0 0.0 0.0 29.1751946751" Properties=species:S:1:pos:R:3:initial_magmoms:R:1 pbc="T T T"
Si      -1.34799751      -1.36163224      -1.35078234       0.00000000
Si       1.34268697      -1.38344455       1.34389699       0.00000000
Si      -1.38860848       1.35078310       1.33345227       0.00000000
Si       1.34838847       1.34762284      -1.37838207       0.00000000
Si       2.71021619      -0.02523321       2.67268123       0.00000000
Si      -0.03764619       2.73689922       2.65666405       0.00000000
Si      -2.69108522      -0.00373041      -2.71440176       0.00000000
Si       2.71337645       2.70313004      -0.03142168       0.00000000
Si       0.01115865      -2.71700912      -2.70483230       0.00000000
Si      -0.03220533      -2.72073953       2.70567838       0.00000000
