10
Lattice="16.290000149 0.0 0.0 0.0 16.290000149 0.0 0.0 0.0 29.1751946751" Properties=species:S:1:pos:R:3:initial_magmoms:R:1 pbc="T T T"
Si       0.92779696      -1.04343967       1.83395274       0.00000000
Si      -0.77064733      -2.04586112      -0.87971964       0.00000000
Si      -1.29637450       1.50078142       1.32184055       0.00000000
Si       1.99155026       0.60067747      -1.17100479       0.00000000
H       -0.26208981       2.68250690      -1.44154637       0.00000000
Si      -0.15640029      -1.53059212      -3.06187833       0.00000000
Si       2.26128008      -2.58963761       0.67622266       0.00000000
Si      -1.01066419      -2.07168077       2.73645821       0.00000000
Si       1.99930430       0.71661340       2.89756363       0.00000000
Si       0.29840022       2.31472757       2.88210078       0.00000000
