10
Lattice="16.290000149 0.0 0.0 0.0 16.290000149 0.0 0.0 0.0 29.1751946751" Properties=species:S:1:pos:R:3:initial_magmoms:R:1 pbc="T T T"
Si      -1.34164441      -1.34531292      -1.39165679       0.00000000
Si       1.30899925       1.34657702      -1.42383703       0.00000000
Si       1.41949432      -1.36723926       1.29987162       0.00000000
Si      -1.41964093       1.35436364       1.33575711       0.00000000
Si       0.06887412      -2.65660906       2.67329391       0.00000000
Si      -2.67945416      -2.69542813      -0.02272748       0.00000000
Si       2.60296283       2.78340391      -0.11127419       0.00000000
Si      -0.10629225       2.82005641       2.61593548       0.00000000
Si       2.67763619      -0.04661546       2.76671289       0.00000000
Si       2.73442314      -0.01447204      -2.72341690       0.00000000
