10
Lattice="16.290000149 0.0 0.0 0.0 16.290000149 0.0 0.0 0.0 29.1751946751" Properties=species:S:1:pos:R:3:initial_magmoms:R:1 pbc="T T T"
Si       0.62864740      -0.40210236       2.14843216       0.00000000
Si       1.83120779       0.82596817      -1.16344841       0.00000000
Si      -0.87923647      -1.88908616      -1.06871656       0.00000000
Si      -1.60217038       1.77613130       0.08869259       0.00000000
H        2.67388949       1.75850552      -0.34957718       0.00000000
Si      -2.27387225      -0.60624865      -2.42944764       0.00000000
Si       0.53579439       2.11924757      -2.59061141       0.00000000
Si      -1.49670892      -0.98611516       3.15097938       0.00000000
Si      -3.45742221       0.84523924      -1.01821429       0.00000000
Si      -0.54747433       3.53942607      -1.09304867       0.00000000
