10
Lattice="16.290000149 0.0 0.0 0.0 16.290000149 0.0 0.0 0.0 29.1751946751" Properties=species:S:1:pos:R:3:initial_magmoms:R:1 pbc="T T T"
H       -1.10995174       0.05631453       1.02801716       0.00000000
Si       0.22196754      -2.13495113      -0.91429225       0.00000000
Si       2.06637023       0.69265081       0.89372374       0.00000000
Si      -0.22750614       1.51264054      -1.84267612       0.00000000
H       -0.46967328       0.99522127       2.62448381       0.00000000
H       -2.06627249       1.85310155       1.42987629       0.00000000
Si       2.34732386      -1.55093833      -1.91683947       0.00000000
H        2.42913224      -2.37355076       0.65682116       0.00000000
Si       3.32605965       0.44299026      -1.04210878       0.00000000
Si       1.72388927       2.81129565       1.82928471       0.00000000
