10
Lattice="16.290000149 0.0 0.0 0.0 16.290000149 0.0 0.0 0.0 29.1751946751" Properties=species:S:1:pos:R:3:initial_magmoms:R:1 pbc="T T T"
Si       1.38225538      -1.35679411      -1.32408995       0.00000000
Si       1.33680628       1.32511006       1.40443552       0.00000000
Si      -1.35392707      -1.39768201       1.31973993       0.00000000
Si      -1.32882418       1.39663945      -1.36796069       0.00000000
Si      -0.03073923      -2.65364102      -2.66698419       0.00000000
Si      -2.65994525       2.71093295       0.05011131       0.00000000
Si       2.70795188       0.04522104      -2.66404421       0.00000000
Si      -2.70607853      -0.02823057       2.67793277       0.00000000
Si      -2.75568159       0.03652218      -2.64575661       0.00000000
Si       2.68688891       2.72010124       0.09384201       0.00000000
