10
Lattice="16.290000149 0.0 0.0 0.0 16.290000149 0.0 0.0 0.0 29.1751946751" Properties=species:S:1:pos:R:3:initial_magmoms:R:1 pbc="T T T"
Si      -0.96971113       1.45415944       1.51293807       0.00000000
Si       1.56732607      -1.28057320       1.12522891       0.00000000
Si       1.62116452       1.02887641      -1.39224029       0.00000000
Si      -1.89838775      -1.50123754      -0.31701767       0.00000000
H       -0.38550285      -2.34878996      -2.02093656       0.00000000
H        0.76398472      -0.71576632      -3.14744918       0.00000000
H       -2.49961907      -1.59456295      -1.71672681       0.00000000
Si       0.17498718      -2.71656929       2.30271059       0.00000000
Si      -2.66080862       2.38720178       0.20609358       0.00000000
H        1.41346702      -1.14008824      -3.10356968       0.00000000
