10
Lattice="16.290000149 0.0 0.0 0.0 16.290000149 0.0 0.0 0.0 29.1751946751" Properties=species:S:1:pos:R:3:initial_magmoms:R:1 pbc="T T T"
Si      -1.36037791      -1.36226755       1.34415957       0.00000000
Si       1.35431803       1.35361756       1.36041015       0.00000000
Si       1.36938628      -1.37904625      -1.32248240       0.00000000
Si      -1.38346084       1.33812577      -1.35034471       0.00000000
Si      -0.01928736       2.69956253      -2.67979998       0.00000000
Si       2.71621091      -0.04122999       2.66465806       0.00000000
Si      -0.00371412      -2.70593192      -2.68616017       0.00000000
Si      -2.73551456       0.00180819       2.67670741       0.00000000
Si      -0.00983916      -2.73924498       2.68613100       0.00000000
Si       2.72953614       2.69606018       0.01835120       0.00000000
