10
Lattice="16.290000149 0.0 0.0 0.0 16.290000149 0.0 0.0 0.0 29.1751946751" Properties=species:S:1:pos:R:3:initial_magmoms:R:1 pbc="T T T"
H       -1.04492206       1.11445755       0.03795693       0.00000000
Si      -0.82285678      -1.93881464       1.01386719       0.00000000
Si       0.26705826      -0.72898891      -2.20984595       0.00000000
Si       1.87650539       0.88671684       1.12050253       0.00000000
Si       2.51887222      -1.30431914      -2.03391952       0.00000000
Si      -2.38633841      -2.71913823      -0.57761050       0.00000000
Si       0.94442905       1.69994785       3.11643594       0.00000000
H        0.18075384       3.27383880      -1.71748536       0.00000000
Si      -2.87520132       0.51944901       2.39647967       0.00000000
Si      -1.30131037       2.20687637       2.83839634       0.00000000
