10
Lattice="16.290000149 0.0 0.0 0.0 16.290000149 0.0 0.0 0.0 29.1751946751" Properties=species:S:1:pos:R:3:initial_magmoms:R:1 pbc="T T T"
Si       1.33542163       1.36389981      -1.36951281       0.00000000
Si      -1.36094806      -1.34243936      -1.37855712       0.00000000
Si      -1.42542388       1.36104906       1.29957987       0.00000000
Si       1.39905037      -1.34136422       1.36137293       0.00000000
Si       2.70295085      -2.68631551      -0.07273376       0.00000000
Si       0.05391990      -2.71832536       2.67615308       0.00000000
Si       2.69570180       2.71007284      -0.00233402       0.00000000
Si      -0.13146030       2.79787594       2.61214270       0.00000000
Si      -2.72453510      -2.69242426      -0.02885427       0.00000000
Si       2.62943408       0.09247019       2.78663954       0.00000000
