10
Lattice="16.290000149 0.0 0.0 0.0 16.290000149 0.0 0.0 0.0 29.1751946751" Properties=species:S:1:pos:R:3:initial_magmoms:R:1 pbc="T T T"
Si       0.08384463      -0.69266710      -2.22974635       0.00000000
Si      -0.98816770      -1.78607471       1.15485632       0.00000000
Si       1.83914102       0.88137046       1.18588414       0.00000000
Si      -1.63349605       1.73514566      -0.08397992       0.00000000
H        2.53594577      -0.94656304      -0.73553875       0.00000000
Si      -2.30466035      -0.46366227       2.55462964       0.00000000
Si       0.55143280       2.33004017       2.51428910       0.00000000
Si      -2.11954079      -0.31081320      -3.03375636       0.00000000
Si      -2.07166448       1.98340526      -2.36745326       0.00000000
Si       2.02230578       0.33557400      -3.13225182       0.00000000
