10
Lattice="16.290000149 0.0 0.0 0.0 16.290000149 0.0 0.0 0.0 29.1751946751" Properties=species:S:1:pos:R:3:initial_magmoms:R:1 pbc="T T T"
Si      -0.73057393       2.18991033       0.40153820       0.00000000
Si       1.90014707       0.54835724       1.28542990       0.00000000
Si      -1.61282404      -1.48597707       0.94833970       0.00000000
Si       0.73163278       0.34468337      -2.26311985       0.00000000
H        1.44681265      -2.18037091      -1.27574374       0.00000000
H        1.72152722       1.93601439       1.89574580       0.00000000
Si       2.54137034       1.67195349      -1.65869734       0.00000000
Si       1.20788722       3.21815143      -0.50096727       0.00000000
H       -0.44683470      -2.60117419      -2.51370560       0.00000000
Si      -0.39886065      -2.90439625       2.39265888       0.00000000
