10
Lattice="16.290000149 0.0 0.0 0.0 16.290000149 0.0 0.0 0.0 29.1751946751" Properties=species:S:1:pos:R:3:initial_magmoms:R:1 pbc="T T T"
Si       1.29373226       1.40488219       1.31230026       0.00000000
Si      -1.32001129       1.38043090      -1.33126413       0.00000000
Si       1.40805711      -1.31577589      -1.31054974       0.00000000
Si      -1.31655781      -1.32074434       1.44919027       0.00000000
Si       0.01532889      -2.68915322      -2.62127454       0.00000000
Si      -2.55997352       2.75100636       0.08029014       0.00000000
Si       2.77694004      -2.55500507       0.13569383       0.00000000
Si      -2.70813107       0.02176344      -2.66022343       0.00000000
Si       2.73900063       0.08606007      -2.64907850       0.00000000
Si       2.70943427       0.18472860       2.69322057       0.00000000
