10
Lattice="16.290000149 0.0 0.0 0.0 16.290000149 0.0 0.0 0.0 29.1751946751" Properties=species:S:1:pos:R:3:initial_magmoms:R:1 pbc="T T T"
Si       1.46612119      -1.21875265      -1.33117661       0.00000000
Si      -1.15215913      -1.64054963       1.18139116       0.00000000
Si      -1.76787227       1.15856110      -1.03504838       0.00000000
Si       1.45625760       1.38127798       1.35652985       0.00000000
H       -2.05496723      -0.89883334       2.15782657       0.00000000
Si      -3.38255337       1.32675535       0.64570541       0.00000000
Si       2.68646537       0.29532141      -2.61885300       0.00000000
Si       2.90063001      -2.40570722       0.11643820       0.00000000
Si      -0.94501549       3.09737574      -2.04891557       0.00000000
Si       0.24723855      -2.81292465       2.64443965       0.00000000
