10
Lattice="16.290000149 0.0 0.0 0.0 16.290000149 0.0 0.0 0.0 29.1751946751" Properties=species:S:1:pos:R:3:initial_magmoms:R:1 pbc="T T T"
Si       1.35985663      -1.35728933      -1.33969576       0.00000000
Si       1.37303524       1.34734591       1.34343019       0.00000000
Si      -1.34451145      -1.35532475       1.36539911       0.00000000
Si      -1.32988303       1.37008675      -1.37240116       0.00000000
Si       0.00164529       2.70365132       2.67632813       0.00000000
Si       2.70868493       0.01640403      -2.67685329       0.00000000
Si       0.04531878      -2.70360245       2.69847211       0.00000000
Si       0.00428427      -2.72908001      -2.67784524       0.00000000
Si      -2.68903919       2.72546363      -0.01835120       0.00000000
Si      -2.70117524      -2.71800281       0.01511275       0.00000000
