10
Lattice="16.290000149 0.0 0.0 0.0 16.290000149 0.0 0.0 0.0 29.1751946751" Properties=species:S:1:pos:R:3:initial_magmoms:R:1 pbc="T T T"
Si       1.32124933       1.32541957      -1.36612003       0.00000000
Si      -1.25833735       1.40079340       1.36469599       0.00000000
Si      -1.72460603      -0.94066606      -1.27609792       0.00000000
Si       1.44976530      -1.38455227       1.22725165       0.00000000
Si      -3.43015275       0.72798382      -1.14922551       0.00000000
Si      -2.57276117       2.66463677      -0.10858424       0.00000000
Si      -2.59050098      -2.66849750       0.10683665       0.00000000
Si       2.58509759      -0.10181250      -2.69282962       0.00000000
Si      -2.66923055      -0.00368154       2.62268662       0.00000000
Si       2.81199123       0.01006722       2.54598503       0.00000000
