10
Lattice="16.290000149 0.0 0.0 0.0 16.290000149 0.0 0.0 0.0 29.1751946751" Properties=species:S:1:pos:R:3:initial_magmoms:R:1 pbc="T T T"
Si       1.29145492      -1.41248962       1.35997252       0.00000000
Si      -1.33281523       1.06697872       1.62386216       0.00000000
Si       1.31655781       1.32074434      -1.44919027       0.00000000
Si      -1.40942710      -1.36326124      -1.31892303       0.00000000
H       -2.52120332       1.56709801       0.82125255       0.00000000
Si       2.71421702       0.02515176       2.52266238       0.00000000
Si      -2.02566152      -0.79335559       3.04273940       0.00000000
Si      -0.34666749      -2.46974321       2.79142428       0.00000000
H       -1.88555123       3.24662961      -0.28860103       0.00000000
Si       2.61029008       2.72562653      -0.13689001       0.00000000
