10
Lattice="16.290000149 0.0 0.0 0.0 16.290000149 0.0 0.0 0.0 29.1751946751" Properties=species:S:1:pos:R:3:initial_magmoms:R:1 pbc="T T T"
Si       1.35008263       1.39499118      -1.31059351       0.00000000
Si      -1.32453991       1.35171163       1.38418794       0.00000000
Si      -1.33680628      -1.32511006      -1.40443552       0.00000000
Si       1.38460114      -1.35715249       1.33908309       0.00000000
Si       2.67310757      -0.09345573      -2.51704908       0.00000000
Si       0.02042766      -2.71858925       2.66853836       0.00000000
Si       2.71047683       2.67794408       0.09896226       0.00000000
Si      -0.03258000       2.72100995      -2.67499774       0.00000000
Si      -2.71220357      -0.00768888       2.68808574       0.00000000
Si      -2.69516423       2.71270205       0.07107077       0.00000000
