10
Lattice="16.290000149 0.0 0.0 0.0 16.290000149 0.0 0.0 0.0 29.1751946751" Properties=species:S:1:pos:R:3:initial_magmoms:R:1 pbc="T T T"
Si       0.51616820      -0.67564405       2.23318610       0.00000000
Si      -2.01192905       1.36586764       0.08396621       0.00000000
Si       1.16290076       2.05879538      -0.59529067       0.00000000
Si      -1.22823343      -1.58534281      -1.40965788       0.00000000
Si       2.18522207      -1.41859837      -1.03843270       0.00000000
H       -1.03133620       1.11153187      -2.39604204       0.00000000
H       -1.54034983       2.64758114      -0.56608630       0.00000000
H       -2.66905136      -1.29393100      -0.96879151       0.00000000
Si      -0.00542457       2.23140422      -2.61316384       0.00000000
H        3.37725912      -1.04521528      -0.14619690       0.00000000
