10
Lattice="16.290000149 0.0 0.0 0.0 16.290000149 0.0 0.0 0.0 29.1751946751" Properties=species:S:1:pos:R:3:initial_magmoms:R:1 pbc="T T T"
Si       1.30419370      -1.37995849       1.37456012       0.00000000
Si      -1.37287234      -1.38453598      -1.30920769       0.00000000
Si      -1.32366025       1.36990756       1.37456012       0.00000000
Si       1.35426916       1.34666173      -1.37421002       0.00000000
Si      -2.68307705       2.69529455      -0.01686326       0.00000000
Si       2.68264863      -0.02054169       2.71128002       0.00000000
Si      -2.69659775      -0.02011815      -2.70168138       0.00000000
Si      -0.00192222      -2.72468009      -2.67457762       0.00000000
Si       2.69711089       2.70598079      -0.01966408       0.00000000
Si      -2.66442500       0.02169828       2.74681540       0.00000000
