10
Lattice="16.290000149 0.0 0.0 0.0 16.290000149 0.0 0.0 0.0 29.1751946751" Properties=species:S:1:pos:R:3:initial_magmoms:R:1 pbc="T T T"
Si       1.34025976       1.36277254       1.36513653       0.00000000
Si      -1.35092483       1.35918874      -1.35988500       0.00000000
Si      -1.35869678      -1.35200485       1.36251077       0.00000000
Si       1.36889758      -1.35360127      -1.35165759       0.00000000
Si      -2.68114250       2.70863606       0.03145086       0.00000000
Si       2.70695819       0.00531054       2.69354150       0.00000000
Si       0.00876402      -2.70804962      -2.70518240       0.00000000
Si      -2.71065602      -2.70440066       0.00096278       0.00000000
Si       2.70857090       2.70659981       0.02202727       0.00000000
Si       2.71710686      -2.71427240       0.01403327       0.00000000
