10
Lattice="16.290000149 0.0 0.0 0.0 16.290000149 0.0 0.0 0.0 29.1751946751" Properties=species:S:1:pos:R:3:initial_magmoms:R:1 pbc="T T T"
Si       1.34631476       1.46258137      -1.23118563       0.00000000
Si       1.38581801      -1.33978735       1.37129834       0.00000000
Si      -1.36059457       1.45901386       1.28580043       0.00000000
Si      -1.21927361      -1.48913407      -1.39984335       0.00000000
Si      -2.67954701      -2.66774816       0.01623891       0.00000000
Si      -2.66343620       0.10503792       2.71992754       0.00000000
Si      -0.01025456       2.70506855      -2.68775314       0.00000000
Si       2.79050472       0.26754696      -2.58785727       0.00000000
Si       0.03948044      -2.66856266       2.75216613       0.00000000
Si       0.03008763       2.74590759       2.72062775       0.00000000
