10
Lattice="16.290000149 0.0 0.0 0.0 16.290000149 0.0 0.0 0.0 29.1751946751" Properties=species:S:1:pos:R:3:initial_magmoms:R:1 pbc="T T T"
Si      -1.33923349      -0.61243885      -0.26435644       0.00000000
H        0.95632075      -1.79678702      -0.40185913       0.00000000
H        1.59659920      -0.85788028       1.19460752       0.00000000
Si      -2.66093894       0.72966169       1.10891997       0.00000000
Si       1.07061139      -1.12368421       2.58048762       0.00000000
Si      -1.79530463      -0.20269647      -2.47411486       0.00000000
Si       2.06627249      -1.85310155      -1.42987629       0.00000000
Si      -1.14732100       2.06713586       2.28319238       0.00000000
Si       0.01521486       1.11656548      -3.10467834       0.00000000
Si       0.66484378       2.88434001      -1.51267549       0.00000000
