10
Lattice="16.290000149 0.0 0.0 0.0 16.290000149 0.0 0.0 0.0 29.1751946751" Properties=species:S:1:pos:R:3:initial_magmoms:R:1 pbc="T T T"
H        1.98545780      -0.08394237      -1.05835936       0.00000000
Si       1.02252331      -1.33716466       1.61805630       0.00000000
Si       0.76294216       1.87212827      -1.28017837       0.00000000
Si      -0.77214601      -2.04112073      -1.00884906       0.00000000
Si      -1.07295715       1.10892547       1.86677483       0.00000000
H       -1.22681620       1.24941043      -2.36202376       0.00000000
H       -3.02578608       0.04070871      -1.27939064       0.00000000
H       -1.87629851       1.67373236      -2.40590325       0.00000000
H        2.31857201      -0.78742603       2.54048843       0.00000000
Si      -1.01911870       3.41837508      -0.65069437       0.00000000
