10
Lattice="16.290000149 0.0 0.0 0.0 16.290000149 0.0 0.0 0.0 29.1751946751" Properties=species:S:1:pos:R:3:initial_magmoms:R:1 pbc="T T T"
Si       1.31994613      -1.44127405       1.27548116       0.00000000
Si      -1.34869798      -1.36187659      -1.34803987       0.00000000
Si       1.38808720       1.35964486      -1.31405077       0.00000000
Si      -1.29078703       1.36818082       1.41213777       0.00000000
Si       2.74576098      -0.05137866       2.45474253       0.00000000
Si       0.01905930       2.70172910      -2.66725465       0.00000000
Si      -2.66416436       2.72023454       0.06657779       0.00000000
Si      -2.71539641      -0.00441459      -2.67644483       0.00000000
Si      -0.06390567      -2.77687488       2.61590630       0.00000000
Si       2.74113461      -0.01006722      -2.66433713       0.00000000
