10
Lattice="16.290000149 0.0 0.0 0.0 16.290000149 0.0 0.0 0.0 29.1751946751" Properties=species:S:1:pos:R:3:initial_magmoms:R:1 pbc="T T T"
Si      -1.21994182       1.32155884      -1.51830631       0.00000000
Si       1.34475580       1.45634230       1.28869752       0.00000000
Si      -1.62116452      -1.02887641       1.39224029       0.00000000
Si       1.78206086      -1.54624681      -0.62948400       0.00000000
H       -0.85717981      -1.74464273      -1.75520889       0.00000000
H       -0.20769750      -2.16896465      -1.71132939       0.00000000
H        1.35371530       0.60867586      -2.85079580       0.00000000
Si      -0.05383845      -2.30944961       2.51746920       0.00000000
Si       0.03974760       1.07189830      -3.45413882       0.00000000
Si       1.01911870      -3.41837508       0.65069437       0.00000000
