10
Lattice="16.290000149 0.0 0.0 0.0 16.290000149 0.0 0.0 0.0 29.1751946751" Properties=species:S:1:pos:R:3:initial_magmoms:R:1 pbc="T T T"
Si      -1.23996223       1.37057545       1.41155427       0.00000000
Si       1.32001129      -1.38043090       1.33126413       0.00000000
Si       1.35005323       1.41131674      -1.30313925       0.00000000
Si      -1.38811978      -1.35866746      -1.32895929       0.00000000
H       -1.88209775       0.54545437       2.49185338       0.00000000
Si       2.61374356       0.02445129       2.64356439       0.00000000
Si      -2.82095562       2.45490302       0.09420670       0.00000000
Si      -0.08892711       2.76105729      -2.58929853       0.00000000
Si       2.68896915       0.04812066      -2.67519030       0.00000000
Si      -0.00392589      -2.70200603      -2.66416208       0.00000000
