10
Lattice="16.290000149 0.0 0.0 0.0 16.290000149 0.0 0.0 0.0 29.1751946751" Properties=species:S:1:pos:R:3:initial_magmoms:R:1 pbc="T T T"
Si       1.32168102      -1.33569856      -1.40533995       0.00000000
Si       1.39272822       1.37337733       1.31072480       0.00000000
Si      -1.33926607       1.36757809      -1.37415167       0.00000000
Si      -1.35557236      -1.34434855       1.39614977       0.00000000
Si      -0.01532889       2.68915322       2.62127454       0.00000000
Si       2.64979658      -2.69524568      -0.03894888       0.00000000
Si      -2.69909012      -2.67177179      -0.01111575       0.00000000
Si      -2.72345996       2.71091666      -0.03894888       0.00000000
Si       2.67183695       0.03122793      -2.76834670       0.00000000
Si       0.03566386      -2.69931818       2.74707798       0.00000000
