10
Lattice="16.290000149 0.0 0.0 0.0 16.290000149 0.0 0.0 0.0 29.1751946751" Properties=species:S:1:pos:R:3:initial_magmoms:R:1 pbc="T T T"
Si      -1.27892791      -0.04712697      -0.82419925       0.00000000
Si       2.30892833      -0.21108582      -0.93203077       0.00000000
Si       2.16632567       0.20344581       1.42736722       0.00000000
Si       1.44733393       1.86821867      -1.72229927       0.00000000
H        1.29583693       2.66514176      -0.44640965       0.00000000
Si       0.64391113      -1.16943305       2.71095909       0.00000000
Si      -2.64354611      -1.43611175       0.49927511       0.00000000
Si      -0.80353684      -2.61118928       1.43772442       0.00000000
Si      -0.68123152      -1.58086632      -2.57444835       0.00000000
Si      -2.07750119       2.21245895      -0.61795980       0.00000000
