10
Lattice="16.28999089631971 0.0 0.0 0.0 16.28999089631971 0.0 0.0 0.0 34.54679606040008" Properties=species:S:1:pos:R:3:initial_magmoms:R:1 pbc="T T T"
Si       1.35721764      -1.35364850      -1.36142090       0.00000000
Si       1.37521809       1.33491663       1.36211184       0.00000000
Si      -1.36107837       1.36039419      -1.36083360       0.00000000
Si      -1.36018242      -1.34916875       1.38353086       0.00000000
Si       2.71446786      -2.71111888      -0.00228009       0.00000000
Si      -2.71876842      -2.70878984       0.00117459       0.00000000
Si      -0.00182448      -2.71208857      -2.71845435       0.00000000
Si       2.71393029       0.00312768      -2.71866164       0.00000000
Si       2.71580364       2.71723716      -0.00210736       0.00000000
Si      -2.71599912       2.71883358      -0.00241828       0.00000000
