10
Lattice="16.28999089631971 0.0 0.0 0.0 16.28999089631971 0.0 0.0 0.0 34.54679606040008" Properties=species:S:1:pos:R:3:initial_magmoms:R:1 pbc="T T T"
Si       1.36018242       1.34916875      -1.38353086       0.00000000
Si      -1.35858600      -1.35962109      -1.38235627       0.00000000
Si      -1.27322640       1.52889632       1.41990866       0.00000000
Si       1.22611572      -1.58070897       1.40854276       0.00000000
Si       2.73540051       2.68408538      -0.02141903       0.00000000
Si       2.69957880      -2.72307780      -0.03765603       0.00000000
Si      -2.69615790       0.15133247       2.72615829       0.00000000
Si      -2.72921031      -2.71141416       0.00293648       0.00000000
Si      -2.72619666       2.72280671      -0.00635661       0.00000000
Si      -0.00089595       2.70956294      -2.74436447       0.00000000
