10
Lattice="16.28999089631971 0.0 0.0 0.0 16.28999089631971 0.0 0.0 0.0 34.54679606040008" Properties=species:S:1:pos:R:3:initial_magmoms:R:1 pbc="T T T"
Si       0.72319455       1.97731441      -0.97045459       0.00000000
Si       0.88511715       0.26557098       2.13340404       0.00000000
Si       1.57424931      -1.47995206      -0.98707161       0.00000000
Si      -2.40816699      -0.18665638      -0.00421471       0.00000000
Si      -2.23687764      -1.95327430       1.56984184       0.00000000
Si       0.82831392      -1.29134644      -3.20922641       0.00000000
Si       3.07921725       0.86257505       1.59865388       0.00000000
Si      -0.03756474      -3.19797691       1.60563234       0.00000000
Si      -1.22463333      -0.06356602      -3.40842335       0.00000000
Si      -0.52062840       2.10323611      -2.92086415       0.00000000
