10
Lattice="16.28999089631971 0.0 0.0 0.0 16.28999089631971 0.0 0.0 0.0 34.54679606040008" Properties=species:S:1:pos:R:3:initial_magmoms:R:1 pbc="T T T"
Si      -1.82562030      -0.77960682       1.20039819       0.00000000
Si      -0.86670945       1.52335935      -1.55308663       0.00000000
Si       0.69235758      -1.85285718      -1.26310066       0.00000000
Si       1.17595881       0.89984331       1.83771784       0.00000000
Si      -2.09134278      -0.08772165      -2.74280986       0.00000000
Si      -2.86505262       1.37906253       1.56915090       0.00000000
Si      -0.61172208      -2.04193521       2.84797037       0.00000000
Si       2.82704805      -1.27301463      -1.92242663       0.00000000
Si      -0.55146537      -1.72693548      -3.21351022       0.00000000
Si       1.06230348       2.31497190      -2.69206059       0.00000000
