10
Lattice="16.28999089631971 0.0 0.0 0.0 16.28999089631971 0.0 0.0 0.0 34.54679606040008" Properties=species:S:1:pos:R:3:initial_magmoms:R:1 pbc="T T T"
Si       1.32651099       0.92848113       1.74575422       0.00000000
Si       0.03215972      -2.35588906       0.45667435       0.00000000
Si      -2.19687659       0.96733278       0.26127756       0.00000000
Si       1.15429311       0.56940066      -2.10348649       0.00000000
Si      -1.15032554      -0.58262814       3.34630818       0.00000000
Si      -3.30075215      -0.18243171      -1.46761781       0.00000000
Si       3.33185886       1.50462585       0.65041289       0.00000000
Si       2.74515822       2.16191106      -1.49287153       0.00000000
Si      -0.97036991      -3.39064037      -1.42605799       0.00000000
Si      -1.43118143      -2.70266480       2.32866264       0.00000000
