10
Lattice="16.28999089631971 0.0 0.0 0.0 16.28999089631971 0.0 0.0 0.0 34.54679606040008" Properties=species:S:1:pos:R:3:initial_magmoms:R:1 pbc="T T T"
Si      -1.34470692      -1.35128808       1.36437465       0.00000000
Si      -1.34571690       1.28620953      -1.44422271       0.00000000
Si       1.37301894      -1.30046328      -1.41333094       0.00000000
Si       1.36954917       1.36552554       1.36015994       0.00000000
Si       0.41125734       1.99676304      -2.95188515       0.00000000
Si       2.35397016       0.38429739      -2.96028003       0.00000000
Si      -2.69759142      -2.71150308       0.00988384       0.00000000
Si      -2.69356779       2.72795598      -0.02411368       0.00000000
Si      -2.70508482       0.00519651       2.72147720       0.00000000
Si       2.72632698      -2.70168021      -0.00421471       0.00000000
