10
Lattice="16.28999089631971 0.0 0.0 0.0 16.28999089631971 0.0 0.0 0.0 34.54679606040008" Properties=species:S:1:pos:R:3:initial_magmoms:R:1 pbc="T T T"
Si      -1.35695700      -1.35780408       1.35706800       0.00000000
Si       1.35777150       1.35757602       1.35717164       0.00000000
Si      -1.35695700       1.35816246      -1.36135181       0.00000000
Si       1.35951453      -1.35716877      -1.36128271       0.00000000
Si      -2.71471221       2.71435383       0.00020728       0.00000000
Si      -2.71458189      -0.00060273       2.71479239       0.00000000
Si      -0.00030951      -2.71494027       2.71468875       0.00000000
Si       2.71498914       2.71466334       0.00100186       0.00000000
Si       0.00034209       2.71511946       2.71468875       0.00000000
Si       2.71555929      -0.00022806       2.71455056       0.00000000
