10
Lattice="16.28999089631971 0.0 0.0 0.0 16.28999089631971 0.0 0.0 0.0 34.54679606040008" Properties=species:S:1:pos:R:3:initial_magmoms:R:1 pbc="T T T"
Si      -1.35570267      -1.35707103      -1.35800077       0.00000000
Si      -1.35492075       1.35843939       1.35841533       0.00000000
Si       1.35855342       1.35822762      -1.35772439       0.00000000
Si       1.36107837      -1.36039419       1.36083360       0.00000000
Si      -2.71246419       2.71599912      -0.00051820       0.00000000
Si      -2.71337643       0.00024435      -2.71534514       0.00000000
Si       0.00172674      -2.71472361      -2.71527605       0.00000000
Si      -2.71393029      -2.71636564      -0.00107095       0.00000000
Si       0.00190593       2.71536381      -2.71534514       0.00000000
Si       2.71647153       2.71476108       0.00041456       0.00000000
