10
Lattice="16.28999089631971 0.0 0.0 0.0 16.28999089631971 0.0 0.0 0.0 34.54679606040008" Properties=species:S:1:pos:R:3:initial_magmoms:R:1 pbc="T T T"
Si      -1.34604270      -1.36005210      -1.36687930       0.00000000
Si       1.36262592       1.35534429      -1.36556652       0.00000000
Si       1.48649508      -1.28363571       1.32303939       0.00000000
Si      -1.49859855       1.32061401       1.40021697       0.00000000
Si       0.17694198       2.54358576       2.57743425       0.00000000
Si       0.07547157      -2.35330227       3.00256736       0.00000000
Si       2.77324218       0.27733725       2.62041049       0.00000000
Si      -2.71642266      -2.70524772       0.01271323       0.00000000
Si      -2.70358614      -0.00249237      -2.72581283       0.00000000
Si       0.01089801       2.71288773      -2.72640012       0.00000000
