10
Lattice="16.28999089631971 0.0 0.0 0.0 16.28999089631971 0.0 0.0 0.0 34.54679606040008" Properties=species:S:1:pos:R:3:initial_magmoms:R:1 pbc="T T T"
Si       0.70301124       2.07029610      -0.81464845       0.00000000
Si      -1.06668549      -2.13675930      -0.14751490       0.00000000
Si       2.09820087      -0.36639468       1.16336401       0.00000000
Si      -1.46287458       0.35614827       1.91866103       0.00000000
Si       1.91765880       0.25972776      -2.23320979       0.00000000
Si      -3.05373969      -1.23636213       1.30804607       0.00000000
Si      -0.94389147       2.71521720      -2.25891262       0.00000000
Si      -0.84419667      -2.66369193      -2.49054901       0.00000000
Si       2.49085503       2.82191670       0.46593290       0.00000000
Si       2.87787285      -2.52618804       0.43211157       0.00000000
