10
Lattice="16.28999089631971 0.0 0.0 0.0 16.28999089631971 0.0 0.0 0.0 34.54679606040008" Properties=species:S:1:pos:R:3:initial_magmoms:R:1 pbc="T T T"
Si       1.15574292       1.61153712       1.21770615       0.00000000
Si      -1.51524693       0.99248454      -1.46609775       0.00000000
Si      -0.90823266      -1.23605262       1.81674793       0.00000000
Si       1.37482713      -1.08005958      -1.71141469       0.00000000
Si       0.92559780      -2.63425590       2.17980041       0.00000000
Si       0.00654858       2.06904177      -2.95040167       0.00000000
Si      -2.87114508      -0.78221322      -2.18833347       0.00000000
Si      -0.28080702       2.09921085       3.08129956       0.00000000
Si       3.31452630       0.62450973       1.71863497       0.00000000
Si       1.83306483       0.58904640      -3.35491033       0.00000000
