10
Lattice="16.28999089631971 0.0 0.0 0.0 16.28999089631971 0.0 0.0 0.0 34.54679606040008" Properties=species:S:1:pos:R:3:initial_magmoms:R:1 pbc="T T T"
Si      -1.83383046       1.39820328      -0.36305248       0.00000000
Si       1.35624024      -0.98736948      -1.70080881       0.00000000
Si       1.71750357       1.44129033       0.92060354       0.00000000
Si      -0.73316403      -1.45021725       1.80330922       0.00000000
Si       0.40259106       1.85372055       2.82399488       0.00000000
Si      -1.65170826       2.59066386       1.75705103       0.00000000
Si      -0.92559780       2.63425590      -2.17980041       0.00000000
Si       3.04730514      -1.82030976      -0.31772706       0.00000000
Si       0.52883856      -0.47923551       3.50491261       0.00000000
Si       3.36566061      -0.18031401       1.38283993       0.00000000
