10
Lattice="16.28999089631971 0.0 0.0 0.0 16.28999089631971 0.0 0.0 0.0 34.54679606040008" Properties=species:S:1:pos:R:3:initial_magmoms:R:1 pbc="T T T"
Si      -0.22014306      -0.05509278      -2.41015857       0.00000000
Si       1.85736951       1.05795405       1.15796922       0.00000000
Si      -0.88449813      -1.90210185       1.23414494       0.00000000
Si      -1.85365539       1.66255740       0.15318856       0.00000000
Si      -2.16290475      -0.39718278       2.78347288       0.00000000
Si       0.55705284       2.34748674       2.76703551       0.00000000
Si      -0.78437979       2.23853922      -2.99963088       0.00000000
Si      -1.00455543       3.48788448       1.42040410       0.00000000
Si      -3.57732310       0.94724721       1.52536769       0.00000000
Si      -2.38922172      -1.11780351      -3.10206219       0.00000000
