10
Lattice="16.28999089631971 0.0 0.0 0.0 16.28999089631971 0.0 0.0 0.0 34.54679606040008" Properties=species:S:1:pos:R:3:initial_magmoms:R:1 pbc="T T T"
Si       1.26275193      -1.94211009       0.03641234       0.00000000
Si      -1.39945761       0.94936491       1.64166467       0.00000000
Si       1.53326367       1.51971039      -0.96164515       0.00000000
Si      -2.16305136      -0.30665925      -0.97207829       0.00000000
Si       1.62903258       0.12478140      -2.91626942       0.00000000
Si      -2.17456839       1.47859443      -2.44460175       0.00000000
Si       1.75528008      -2.20817466      -2.23535169       0.00000000
Si       3.36650769      -1.13743296       0.79374763       0.00000000
Si      -3.56853627      -0.11334582       0.94976105       0.00000000
Si       3.77765100       1.08735750      -0.02991754       0.00000000
