10
Lattice="16.28999089631971 0.0 0.0 0.0 16.28999089631971 0.0 0.0 0.0 34.54679606040008" Properties=species:S:1:pos:R:3:initial_magmoms:R:1 pbc="T T T"
Si      -1.56160827       1.14039774      -1.34663141       0.00000000
Si       1.35066906       1.35886293       1.37942670       0.00000000
Si      -1.36246302      -1.36026387       1.37687024       0.00000000
Si       1.30031667      -1.28953269      -1.60906629       0.00000000
Si      -2.41070823      -0.68492934      -2.61384694       0.00000000
Si      -0.55705284      -2.34748674      -2.76703551       0.00000000
Si       2.70107748       2.70062943      -0.01189101       0.00000000
Si       2.69969283      -2.71477737      -0.02348493       0.00000000
Si       2.70443322       0.00034209       2.73839478       0.00000000
Si      -2.74284504       2.70644339       0.00425271       0.00000000
