10
Lattice="16.28999089631971 0.0 0.0 0.0 16.28999089631971 0.0 0.0 0.0 34.54679606040008" Properties=species:S:1:pos:R:3:initial_magmoms:R:1 pbc="T T T"
Si       1.35580041       1.35630540      -1.35675708       0.00000000
Si       1.35716877      -1.35705474       1.35748256       0.00000000
Si      -1.35762489       1.35759231       1.35737892       0.00000000
Si      -1.35788553      -1.35782037      -1.35699891       0.00000000
Si      -0.00001629      -2.71396287       2.71410146       0.00000000
Si       0.00078192       2.71396287       2.71455056       0.00000000
Si       2.71459818      -2.71459818      -0.00003455       0.00000000
Si       2.71423980       2.71505430      -0.00034547       0.00000000
Si      -2.71109583      -0.00430056      -2.71828162       0.00000000
Si       2.71433754       0.00003258       2.71520695       0.00000000
