10
Lattice="16.28999089631971 0.0 0.0 0.0 16.28999089631971 0.0 0.0 0.0 34.54679606040008" Properties=species:S:1:pos:R:3:initial_magmoms:R:1 pbc="T T T"
Si      -0.17526411      -2.20569858       0.72911054       0.00000000
Si      -0.74593539       0.18860562      -2.22215480       0.00000000
Si      -1.57424931       1.47995206       0.98707161       0.00000000
Si       2.11414878       0.60795909       1.01622912       0.00000000
Si      -1.61181405      -1.71802485       2.59270395       0.00000000
Si      -0.85105476       3.45726647       0.01661702       0.00000000
Si      -0.68913216       1.74552304       3.12047564       0.00000000
Si       1.05932241       1.33439535      -3.23451468       0.00000000
Si       1.50496794       2.34252711       2.58572549       0.00000000
Si       3.00605886      -1.26892584       2.17285650       0.00000000
