10
Lattice="16.28999089631971 0.0 0.0 0.0 16.28999089631971 0.0 0.0 0.0 34.54679606040008" Properties=species:S:1:pos:R:3:initial_magmoms:R:1 pbc="T T T"
Si       0.61237368       0.52448913      -2.16518711       0.00000000
Si       0.73910988      -2.24756388       0.32943843       0.00000000
Si      -2.37856806      -0.25194114      -0.05144021       0.00000000
Si       1.54074078       1.45414314       1.15987478       0.00000000
Si       2.86112673      -0.20722509      -1.82700833       0.00000000
Si      -2.75784813      -0.52427736       2.34327594       0.00000000
Si       0.95726556       1.11215088       3.37132007       0.00000000
Si      -0.77411709      -0.76274667      -3.54768156       0.00000000
Si      -1.41514488       1.19195559       3.33801694       0.00000000
Si      -1.97486928       2.79977926       1.68944291       0.00000000
