10
Lattice="16.28999089631971 0.0 0.0 0.0 16.28999089631971 0.0 0.0 0.0 34.54679606040008" Properties=species:S:1:pos:R:3:initial_magmoms:R:1 pbc="T T T"
Si       1.35671265       1.35677618      -1.35724074       0.00000000
Si      -1.35721764       1.35364850       1.36142090       0.00000000
Si       1.35725022      -1.35747038       1.35914081       0.00000000
Si      -1.35904212      -1.35844007      -1.35703345       0.00000000
Si       0.01800045       2.68856513       2.72353274       0.00000000
Si      -0.01782126      -2.71859805       2.70729573       0.00000000
Si       2.71283886      -2.71485135      -0.00027637       0.00000000
Si       2.71376739      -0.00049847      -2.71489603       0.00000000
Si       2.71518462       2.71436849       0.00044911       0.00000000
Si      -0.00166158       2.71477574      -2.71493058       0.00000000
