10
Lattice="16.28999089631971 0.0 0.0 0.0 16.28999089631971 0.0 0.0 0.0 34.54679606040008" Properties=species:S:1:pos:R:3:initial_magmoms:R:1 pbc="T T T"
Si       1.41463989      -1.19097167      -1.48862227       0.00000000
Si       1.63561374       0.87605991       1.50195734       0.00000000
Si      -1.28099673       1.49364639      -1.48202383       0.00000000
Si      -0.78403770      -2.09325034       1.09786325       0.00000000
Si      -0.02713914      -0.17689311       3.24301320       0.00000000
Si      -2.04221214       1.12555755       2.85581249       0.00000000
Si       2.83804380      -2.39822048      -0.04079979       0.00000000
Si       2.65005720       2.68716582      -0.12934328       0.00000000
Si       3.51456750      -0.53916642       1.30870246       0.00000000
Si       0.05825304      -2.55238912      -2.84641576       0.00000000
