10
Lattice="16.28999089631971 0.0 0.0 0.0 16.28999089631971 0.0 0.0 0.0 34.54679606040008" Properties=species:S:1:pos:R:3:initial_magmoms:R:1 pbc="T T T"
Si       1.34048781       1.35311256       1.38646389       0.00000000
Si      -1.36721970      -1.36050822       1.38242191       0.00000000
Si      -1.27617489       1.33283151      -1.52487570       0.00000000
Si       1.41783273      -1.33846785      -1.51685739       0.00000000
Si      -0.38279871      -2.34173637      -2.93801806       0.00000000
Si      -2.32551153      -0.72927072      -2.92962318       0.00000000
Si       2.69996976       2.71637379       0.03376951       0.00000000
Si       2.71331127      -2.72746728      -0.00642916       0.00000000
Si      -2.73250089       2.71002069      -0.01772597       0.00000000
Si       2.70423774      -0.00195480       2.74322097       0.00000000
