10
Lattice="16.28999089631971 0.0 0.0 0.0 16.28999089631971 0.0 0.0 0.0 34.54679606040008" Properties=species:S:1:pos:R:3:initial_magmoms:R:1 pbc="T T T"
Si      -1.35780408      -1.35624024       1.35820805       0.00000000
Si       1.35707103       1.35876519       1.35858806       0.00000000
Si       1.35860229      -1.35799956      -1.35806986       0.00000000
Si      -1.35606105       1.35902583      -1.35996993       0.00000000
Si       2.71559187      -2.71339272       0.00172734       0.00000000
Si       0.00057015      -2.71423980       2.71589789       0.00000000
Si      -2.71655298      -2.71384884       0.00238373       0.00000000
Si       2.71494027       0.00065160       2.71607062       0.00000000
Si      -2.71557558       2.71619460       0.00131278       0.00000000
Si      -0.00001629       2.71596654       2.71586334       0.00000000
