10
Lattice="16.28999089631971 0.0 0.0 0.0 16.28999089631971 0.0 0.0 0.0 34.54679606040008" Properties=species:S:1:pos:R:3:initial_magmoms:R:1 pbc="T T T"
Si      -1.25867943       1.46033334       1.32538857       0.00000000
Si      -1.37521809      -1.33491663      -1.36211184       0.00000000
Si       1.34058555       1.38232053      -1.36421919       0.00000000
Si       1.28099673      -1.49364639       1.48202383       0.00000000
Si       2.69563662      -2.68461806      -0.00659844       0.00000000
Si      -0.01800045      -2.68856513      -2.72353274       0.00000000
Si      -2.73540051      -2.68408538       0.02141903       0.00000000
Si       2.69718417       0.02580336      -2.72308363       0.00000000
Si       2.69578323       2.73974994       0.00639116       0.00000000
Si      -2.73629646       0.02547756      -2.72294544       0.00000000
