10
Lattice="16.28999089631971 0.0 0.0 0.0 16.28999089631971 0.0 0.0 0.0 34.54679606040008" Properties=species:S:1:pos:R:3:initial_magmoms:R:1 pbc="T T T"
Si      -0.21116727       2.11341573       1.02707682       0.00000000
Si      -1.49253867       0.72773946      -1.69956513       0.00000000
Si      -1.75901049      -0.85859703       1.46146848       0.00000000
Si       2.25442197      -0.93498084      -0.15791349       0.00000000
Si      -2.45614104       2.21913783      -0.04069615       0.00000000
Si       1.39600413      -2.91115332      -1.33834363       0.00000000
Si      -2.28182175      -2.66165568       0.01551152       0.00000000
Si      -0.02143764       1.96287984      -2.95375271       0.00000000
Si      -0.43280901      -1.54162044       3.33204034       0.00000000
Si       1.59606162       3.01853700      -1.60145217       0.00000000
