10
Lattice="16.28999089631971 0.0 0.0 0.0 16.28999089631971 0.0 0.0 0.0 34.54679606040008" Properties=species:S:1:pos:R:3:initial_magmoms:R:1 pbc="T T T"
Si      -2.16883431      -0.41845752       0.90512656       0.00000000
Si      -1.32620148       0.68302341      -1.87057186       0.00000000
Si       0.73982664      -2.20617099      -0.60108004       0.00000000
Si       1.74793329       1.47273003       0.97263104       0.00000000
Si       0.84949092       3.45168810       0.00621843       0.00000000
Si      -1.63294218      -2.10743730       2.46608987       0.00000000
Si      -0.34160130      -3.51006169       1.09547952       0.00000000
Si       0.43280901       1.54162044      -3.33204034       0.00000000
Si       0.16606026      -2.42248590      -2.92932812       0.00000000
Si      -3.57695820      -0.98740206      -1.25287481       0.00000000
