10
Lattice="16.28999089631971 0.0 0.0 0.0 16.28999089631971 0.0 0.0 0.0 34.54679606040008" Properties=species:S:1:pos:R:3:initial_magmoms:R:1 pbc="T T T"
Si       1.35223290      -1.35821133      -1.35824259       0.00000000
Si      -1.35721764      -1.35708732       1.35616978       0.00000000
Si       1.35729909       1.35742941       1.35637706       0.00000000
Si      -1.35668007       1.35905841      -1.35976265       0.00000000
Si       2.71171485       0.00504990      -2.71093697       0.00000000
Si      -2.71464705       0.00045612       2.71368689       0.00000000
Si       0.00011403       2.71508688       2.71334143       0.00000000
Si       0.00057015      -2.71489140       2.71354871       0.00000000
Si       2.71526607       0.00003258       2.71365235       0.00000000
Si       2.71477737       2.71438641      -0.00196917       0.00000000
