10
Lattice="16.28999089631971 0.0 0.0 0.0 16.28999089631971 0.0 0.0 0.0 34.54679606040008" Properties=species:S:1:pos:R:3:initial_magmoms:R:1 pbc="T T T"
Si       1.33662708       1.34692236      -1.36332097       0.00000000
Si      -1.23140997       1.42420212       1.41562485       0.00000000
Si       1.49882661      -1.20909267       1.37254497       0.00000000
Si      -1.38289068      -1.36622601      -1.35924445       0.00000000
Si       0.02772558      -2.44423305       2.62673256       0.00000000
Si      -2.56857462      -0.17798454       2.58375632       0.00000000
Si       2.67327045       2.71212210       0.00594205       0.00000000
Si       2.69342118      -0.00980658      -2.71931802       0.00000000
Si      -2.72419299       2.69070075       0.00276375       0.00000000
Si       2.69544114      -2.72578941       0.01036404       0.00000000
