10
Lattice="16.28999089631971 0.0 0.0 0.0 16.28999089631971 0.0 0.0 0.0 34.54679606040008" Properties=species:S:1:pos:R:3:initial_magmoms:R:1 pbc="T T T"
Si       1.45233495      -1.24255233       1.35844987       0.00000000
Si      -1.33664337      -1.36519974      -1.36926303       0.00000000
Si       1.37569050       1.35244467      -1.35990084       0.00000000
Si      -1.50540777       1.31631345       1.40757545       0.00000000
Si      -2.67327045      -2.71212210      -0.00594205       0.00000000
Si       2.38710402       0.29304081       2.96024752       0.00000000
Si      -2.70943425       2.70516627      -0.01820617       0.00000000
Si      -2.69353521      -0.00680922      -2.72491461       0.00000000
Si       0.02122587       2.70891297      -2.72577828       0.00000000
Si       0.02015073      -2.72192868      -2.72526008       0.00000000
