10
Lattice="16.28999089631971 0.0 0.0 0.0 16.28999089631971 0.0 0.0 0.0 34.54679606040008" Properties=species:S:1:pos:R:3:initial_magmoms:R:1 pbc="T T T"
Si      -1.16097201      -1.55984895       1.42243058       0.00000000
Si       0.96360237      -1.49139837      -1.65886898       0.00000000
Si      -1.63269783       0.77485014      -1.70184522       0.00000000
Si       2.24497377      -0.10572210       1.06777297       0.00000000
Si      -0.70744212       2.35181988       0.41635822       0.00000000
Si       2.45614104      -2.21913783       0.04069615       0.00000000
Si       0.69713055      -3.07773486       1.50216463       0.00000000
Si      -3.07788147       2.01468204      -0.25167355       0.00000000
Si      -0.29553318       2.37703680      -2.86997669       0.00000000
Si      -2.94881580      -2.31146955       0.14184922       0.00000000
