10
Lattice="16.28999089631971 0.0 0.0 0.0 16.28999089631971 0.0 0.0 0.0 34.54679606040008" Properties=species:S:1:pos:R:3:initial_magmoms:R:1 pbc="T T T"
Si       1.33216362       1.57304385       1.11185471       0.00000000
Si      -2.01137517       1.03320954      -0.69449463       0.00000000
Si      -1.10436426      -1.50835626       1.49591165       0.00000000
Si       1.71087354      -0.76325166      -1.59706473       0.00000000
Si      -3.05219214      -0.99624753      -1.46661595       0.00000000
Si       2.34639531       2.71265967      -0.71736462       0.00000000
Si       3.07200078       0.16107552       2.08676584       0.00000000
Si      -2.53630413      -2.73439053       0.09317276       0.00000000
Si       0.58670064      -2.34129654       2.87899341       0.00000000
Si       2.60931591      -2.74220973      -0.63065211       0.00000000
