10
Lattice="16.28999089631971 0.0 0.0 0.0 16.28999089631971 0.0 0.0 0.0 34.54679606040008" Properties=species:S:1:pos:R:3:initial_magmoms:R:1 pbc="T T T"
Si       1.86838155       1.27019646       0.72579404       0.00000000
Si      -1.01423169      -1.13961582       1.82921933       0.00000000
Si       1.02820851      -1.78507449      -1.28496880       0.00000000
Si      -1.63434312       0.88881498      -1.62045292       0.00000000
Si       2.83955877       1.45101546      -1.46233215       0.00000000
Si      -0.63552177      -3.47591133      -0.87970011       0.00000000
Si      -2.34639531      -2.71265967       0.71736462       0.00000000
Si       0.82186308       2.76131790      -2.27725698       0.00000000
Si       0.72560547      -2.55158415       2.80413046       0.00000000
Si       0.19587096      -1.48442625      -3.62323545       0.00000000
