10
Lattice="16.28999089631971 0.0 0.0 0.0 16.28999089631971 0.0 0.0 0.0 34.54679606040008" Properties=species:S:1:pos:R:3:initial_magmoms:R:1 pbc="T T T"
Si      -0.41114331      -2.22479046       0.82366517       0.00000000
Si      -2.24438733       0.43235289      -0.93172761       0.00000000
Si       0.15649803       0.17835921      -2.46640079       0.00000000
Si      -0.26171514       0.14102253       2.46208244       0.00000000
Si       2.62446561       0.27481230      -0.77581783       0.00000000
Si      -2.14861842      -0.96257610      -2.88635188       0.00000000
Si       1.03294890      -3.71768751      -0.29927906       0.00000000
Si      -3.77765100      -1.08735750       0.02991754       0.00000000
Si      -2.51489907      -3.02946759       0.06632989       0.00000000
Si      -0.12237048       2.47269168      -3.08817437       0.00000000
