10
Lattice="16.28999089631971 0.0 0.0 0.0 16.28999089631971 0.0 0.0 0.0 34.54679606040008" Properties=species:S:1:pos:R:3:initial_magmoms:R:1 pbc="T T T"
Si       1.35624055       1.35749457       1.35741347       0.00000000
Si      -1.35686125       1.35769005      -1.35765530       0.00000000
Si      -1.35936991      -1.35715248       1.35582432       0.00000000
Si       1.35745742      -1.35730561      -1.35765530       0.00000000
Si      -2.71492597       0.00109143       2.71026676       0.00000000
Si       2.71290922      -0.00022806      -2.71551788       0.00000000
Si      -2.71391599       0.00097740      -2.71465420       0.00000000
Si      -0.00037837       2.71464705      -2.71455056       0.00000000
Si      -2.71486081      -2.71442494      -0.00034547       0.00000000
Si       2.71494547      -2.71454687      -0.00038001       0.00000000
