10
Lattice="16.28999089631971 0.0 0.0 0.0 16.28999089631971 0.0 0.0 0.0 34.54679606040008" Properties=species:S:1:pos:R:3:initial_magmoms:R:1 pbc="T T T"
Si       1.35801009      -1.35482301      -1.35641161       0.00000000
Si      -1.35278505       1.35586557      -1.36107543       0.00000000
Si      -1.35648288      -1.35695700       1.35689527       0.00000000
Si       1.35831634       1.35777150       1.35672253       0.00000000
Si       0.01897779       2.69457777      -2.72827601       0.00000000
Si       2.70491453      -0.01690902      -2.72106264       0.00000000
Si      -2.71353762      -2.71366965      -0.00010364       0.00000000
Si       2.71328759      -2.71487511      -0.00096731       0.00000000
Si      -2.71418922       0.00037467       2.71423964       0.00000000
Si       2.71312469       2.71573848      -0.00145097       0.00000000
