10
Lattice="16.28999089631971 0.0 0.0 0.0 16.28999089631971 0.0 0.0 0.0 34.54679606040008" Properties=species:S:1:pos:R:3:initial_magmoms:R:1 pbc="T T T"
Si      -0.80992251      -1.62052920      -1.64767581       0.00000000
Si       1.58935014       0.98370423      -1.64978317       0.00000000
Si       1.98091287      -0.27952011       1.57920402       0.00000000
Si      -1.22183145      -1.64574612       1.63865909       0.00000000
Si      -2.06272125       1.71331704      -0.08336147       0.00000000
Si      -2.30270553      -0.35403057      -3.06053692       0.00000000
Si      -2.14708716      -3.22271586      -0.47954434       0.00000000
Si       0.38532366       2.37255705      -3.07556478       0.00000000
Si       2.80973178       2.72135853      -0.56435678       0.00000000
Si      -1.08813942       3.51492588      -1.62936600       0.00000000
