10
Lattice="16.28999089631971 0.0 0.0 0.0 16.28999089631971 0.0 0.0 0.0 34.54679606040008" Properties=species:S:1:pos:R:3:initial_magmoms:R:1 pbc="T T T"
Si      -0.88778871       1.53433785      -1.57118916       0.00000000
Si      -1.68948477       1.31403285       1.06113998       0.00000000
Si       0.01844028      -2.34939267       0.45232145       0.00000000
Si       2.47464648      -0.47688975      -0.20448260       0.00000000
Si       0.63974088      -2.68700292      -1.82897750       0.00000000
Si      -0.17383059       2.61412213       2.28233536       0.00000000
Si       2.39837670      -1.14592005      -2.44435992       0.00000000
Si       3.45787830       1.23929433       1.18215748       0.00000000
Si      -2.24674938      -3.24855180       0.45214872       0.00000000
Si      -2.62951551       2.97698840      -0.79727141       0.00000000
