10
Lattice="16.28999089631971 0.0 0.0 0.0 16.28999089631971 0.0 0.0 0.0 34.54679606040008" Properties=species:S:1:pos:R:3:initial_magmoms:R:1 pbc="T T T"
Si      -1.34610786       1.33295859      -1.34763672       0.00000000
Si       1.34301276       1.35629402       1.34989608       0.00000000
Si       1.32157512      -1.38467834      -1.36197365       0.00000000
Si      -1.37326329      -1.35343412       1.34609593       0.00000000
Si      -2.22513255      -0.46862648      -2.73016715       0.00000000
Si      -0.40866723      -2.19904802      -2.77670171       0.00000000
Si       2.48025024       0.08265450      -2.83228753       0.00000000
Si       2.69521308      -2.70749150       0.00259101       0.00000000
Si       2.69998605      -0.00012608       2.70938236       0.00000000
Si      -0.01464471      -2.71487087       2.70744774       0.00000000
