10
Lattice="16.28999089631971 0.0 0.0 0.0 16.28999089631971 0.0 0.0 0.0 34.54679606040008" Properties=species:S:1:pos:R:3:initial_magmoms:R:1 pbc="T T T"
Si       1.35480835       1.35796698      -1.35817350       0.00000000
Si      -1.35728837       1.35773892       1.35703345       0.00000000
Si       1.35754507      -1.35682668       1.35772439       0.00000000
Si      -1.35831634      -1.35777150      -1.35672253       0.00000000
Si      -0.00030625      -2.71259451      -2.71313414       0.00000000
Si      -2.71110139      -0.00190593      -2.71779796       0.00000000
Si       0.00398453       2.71391400      -2.71527605       0.00000000
Si      -2.71470148       0.00066789       2.71472330       0.00000000
Si       2.71473013      -2.71477737      -0.00017273       0.00000000
Si       0.00122664       2.71575477       2.71375599       0.00000000
