10
Lattice="16.28999089631971 0.0 0.0 0.0 16.28999089631971 0.0 0.0 0.0 34.54679606040008" Properties=species:S:1:pos:R:3:initial_magmoms:R:1 pbc="T T T"
Si       1.64690271      -0.64492110       1.44426416       0.00000000
Si       1.28748015       1.21842684      -1.57664756       0.00000000
Si      -1.33995024      -1.46342844      -1.43656022       0.00000000
Si      -1.91873394       1.43022942       1.39330761       0.00000000
Si       0.23664483       1.93051161       2.09595529       0.00000000
Si       0.94389147      -2.71521720       2.25891262       0.00000000
Si       2.86155027      -2.45548944       0.02570283       0.00000000
Si       2.96302068       2.44139859      -0.39943028       0.00000000
Si      -2.87521921       2.64220542      -0.30169734       0.00000000
Si      -2.62296041      -0.10511937      -2.97188979       0.00000000
