10
Lattice="16.28999089631971 0.0 0.0 0.0 16.28999089631971 0.0 0.0 0.0 34.54679606040008" Properties=species:S:1:pos:R:3:initial_magmoms:R:1 pbc="T T T"
Si       0.55999060      -1.20711639      -1.92218481       0.00000000
Si      -1.15867512      -1.46733285       1.47031388       0.00000000
Si       1.61503525       1.31152028       1.31391009       0.00000000
Si      -1.86419502       1.01925650      -1.42015049       0.00000000
Si      -1.47730752      -2.68646016      -1.91548272       0.00000000
Si      -2.88891747      -2.28170253       0.05558583       0.00000000
Si      -2.48025024      -0.08265450       2.83228753       0.00000000
Si      -2.72868903       2.64242957       0.03523775       0.00000000
Si       0.22639842       2.63663033       2.79522225       0.00000000
Si       0.50350502       0.23617340      -3.85773923       0.00000000
