10
Lattice="16.28999089631971 0.0 0.0 0.0 16.28999089631971 0.0 0.0 0.0 34.54679606040008" Properties=species:S:1:pos:R:3:initial_magmoms:R:1 pbc="T T T"
Si      -0.86449401       1.62317307       1.45538824       0.00000000
Si      -0.04197933      -0.32317405      -2.34825068       0.00000000
Si       1.86419502      -1.01925650       1.42015049       0.00000000
Si      -2.51340039       0.59815740      -0.09490010       0.00000000
Si       2.42418562      -2.22637289      -0.50203432       0.00000000
Si       2.36770004      -0.78308311      -2.43758875       0.00000000
Si      -1.96216308       0.23104759       2.90480130       0.00000000
Si      -2.84118777      -1.57053749       1.52227087       0.00000000
Si      -0.32244426       1.88231439      -3.20311163       0.00000000
Si      -1.02472245      -3.30095903       1.47573631       0.00000000
