10
Lattice="16.28999089631971 0.0 0.0 0.0 16.28999089631971 0.0 0.0 0.0 34.54679606040008" Properties=species:S:1:pos:R:3:initial_magmoms:R:1 pbc="T T T"
Si      -1.35589815      -1.35729909       1.35751711       0.00000000
Si       1.35770634      -1.35733167      -1.35734438       0.00000000
Si       1.35780408       1.35806472       1.35720619       0.00000000
Si      -1.35786924       1.35811359      -1.35748256       0.00000000
Si      -0.00035838      -2.71393029       2.71057768       0.00000000
Si       0.00065160      -2.71404432      -2.71434328       0.00000000
Si       2.71418922      -0.00037467      -2.71423964       0.00000000
Si      -2.71249677      -0.00078192       2.71638155       0.00000000
Si      -2.71437012      -2.71489140      -0.00017273       0.00000000
Si       2.71456759      -2.71502172       0.00031092       0.00000000
