10
Lattice="16.28999089631971 0.0 0.0 0.0 16.28999089631971 0.0 0.0 0.0 34.54679606040008" Properties=species:S:1:pos:R:3:initial_magmoms:R:1 pbc="T T T"
Si      -0.89844237       1.97895807      -0.96641261       0.00000000
Si       0.04375494       0.50274198       2.37540448       0.00000000
Si      -1.74793329      -1.47273003      -0.97263104       0.00000000
Si       2.33911368      -0.70369542      -0.48386270       0.00000000
Si      -2.60931591       2.74220973       0.63065211       0.00000000
Si       2.46198915      -2.93216742       0.28394028       0.00000000
Si       0.76528791       3.66979491      -1.37168130       0.00000000
Si       0.46268487       2.90328525       2.71741795       0.00000000
Si       2.79578754      -0.60821973      -2.81504725       0.00000000
Si       1.50853545      -0.97746516       3.62171539       0.00000000
