10
Lattice="16.28999089631971 0.0 0.0 0.0 16.28999089631971 0.0 0.0 0.0 34.54679606040008" Properties=species:S:1:pos:R:3:initial_magmoms:R:1 pbc="T T T"
Si       1.75365108       1.08737379       1.10985099       0.00000000
Si       1.55479905      -1.33336908      -1.21356053       0.00000000
Si      -0.74093436       1.51428582      -1.70540354       0.00000000
Si      -3.13426116      -0.53424684       0.06173516       0.00000000
Si      -0.04694778       2.06607699       2.49393460       0.00000000
Si      -2.20538907      -2.45394189      -1.02320758       0.00000000
Si      -0.04567716      -3.03585327      -1.82780291       0.00000000
Si       2.42317222      -0.69807537       2.51835920       0.00000000
Si       3.34338308      -1.62740358       0.36419253       0.00000000
Si       0.18010224       0.55804653      -3.69440189       0.00000000
