10
Lattice="16.28999089631971 0.0 0.0 0.0 16.28999089631971 0.0 0.0 0.0 34.54679606040008" Properties=species:S:1:pos:R:3:initial_magmoms:R:1 pbc="T T T"
Si      -1.35325917      -1.35780408      -1.36677566       0.00000000
Si       1.36143188       1.35549090      -1.36839936       0.00000000
Si       1.27692423      -1.45925820       1.37897068       0.00000000
Si      -1.28161575       1.47835008       1.35648071       0.00000000
Si      -2.29089528      -0.14465520       2.71693429       0.00000000
Si       2.47595524       0.03160260       2.67357804       0.00000000
Si      -2.71178001      -2.71700910       0.00245282       0.00000000
Si       2.70655811       2.72422557       0.02058990       0.00000000
Si       0.00275301       2.71191033      -2.72640012       0.00000000
Si      -2.71379997      -0.00102627      -2.72722925       0.00000000
