10
Lattice="16.28999089631971 0.0 0.0 0.0 16.28999089631971 0.0 0.0 0.0 34.54679606040008" Properties=species:S:1:pos:R:3:initial_magmoms:R:1 pbc="T T T"
Si       1.00927953       1.62300528      -1.36045359       0.00000000
Si      -1.61749926      -1.05565716      -1.35230054       0.00000000
Si      -0.34798698       0.88301574       2.19617560       0.00000000
Si      -1.80722889      -0.90512127       2.62852899       0.00000000
Si       2.29089528       0.14465520      -2.71693429       0.00000000
Si       1.94404860       3.15859842       0.24134405       0.00000000
Si      -0.42088473      -2.57235390      -2.71448147       0.00000000
Si      -1.59606162      -3.01853700       1.60145217       0.00000000
Si      -1.55690046       2.91864672       1.91765917       0.00000000
Si      -3.08860029      -2.29079754      -0.09811296       0.00000000
