10
Lattice="16.28999089631971 0.0 0.0 0.0 16.28999089631971 0.0 0.0 0.0 34.54679606040008" Properties=species:S:1:pos:R:3:initial_magmoms:R:1 pbc="T T T"
Si       2.19107735      -0.21359448      -0.80224615       0.00000000
Si       0.13962159       1.31404914       1.96301914       0.00000000
Si      -0.46480257      -2.05547220       1.09696503       0.00000000
Si      -1.05538023       0.92553264      -2.07132341       0.00000000
Si      -1.48695120      -3.24405576      -0.62768109       0.00000000
Si       2.26975805       1.41134931      -2.47576298       0.00000000
Si       0.32137435       2.80585476      -2.39699624       0.00000000
Si       2.30212628      -2.47656870      -1.52379093       0.00000000
Si      -3.75582240      -0.26179659      -0.17570510       0.00000000
Si       1.16534166       3.38639778       1.34832766       0.00000000
