10
Lattice="16.28999089631971 0.0 0.0 0.0 16.28999089631971 0.0 0.0 0.0 34.54679606040008" Properties=species:S:1:pos:R:3:initial_magmoms:R:1 pbc="T T T"
Si       1.35698958       1.35581670      -1.35637706       0.00000000
Si      -1.35718506       1.35702339       1.35737892       0.00000000
Si       1.35799389      -1.35791811       1.35779348       0.00000000
Si      -1.35764118      -1.35892809      -1.35831169       0.00000000
Si       2.71460700       0.00493587      -2.71299596       0.00000000
Si      -0.00169416       2.71429586       2.71354871       0.00000000
Si       0.00001629       2.71223680      -2.71586334       0.00000000
Si      -2.71420722       2.71430400      -0.00041456       0.00000000
Si       2.71513316       2.71414273       0.00006909       0.00000000
Si      -2.71513575      -0.00004887       2.71420510       0.00000000
