10
Lattice="16.28999089631971 0.0 0.0 0.0 16.28999089631971 0.0 0.0 0.0 34.54679606040008" Properties=species:S:1:pos:R:3:initial_magmoms:R:1 pbc="T T T"
Si       1.34666172       1.34661177      -1.38902381       0.00000000
Si      -1.37057544      -1.36704051      -1.38332358       0.00000000
Si      -1.30083795       1.50097740       1.41583213       0.00000000
Si       1.28075238      -1.27609344       1.67973526       0.00000000
Si       2.70083706       2.69540271      -0.00003455       0.00000000
Si       2.69424287      -2.71616202      -0.00086367       0.00000000
Si      -0.35916192      -2.42644437       2.93682477       0.00000000
Si      -2.72424186       2.70822620      -0.03199035       0.00000000
Si      -0.01159848       2.70377252      -2.74985741       0.00000000
Si       2.70582831      -0.01135413      -2.74902829       0.00000000
