10
Lattice="16.28999089631971 0.0 0.0 0.0 16.28999089631971 0.0 0.0 0.0 34.54679606040008" Properties=species:S:1:pos:R:3:initial_magmoms:R:1 pbc="T T T"
Si      -0.92981691       1.45979577      -1.52817838       0.00000000
Si       0.07626978       0.66903030       2.23987732       0.00000000
Si      -1.75863582      -1.54108287       0.61538242       0.00000000
Si       1.74231324      -1.30113117      -1.06093270       0.00000000
Si      -2.15019855      -0.27785853      -2.61360477       0.00000000
Si      -2.39837670       1.14592005       2.44435992       0.00000000
Si      -0.54972234      -3.57671385       0.89389885       0.00000000
Si       2.09396547      -0.64127214       3.05480215       0.00000000
Si       0.80063721       2.62629060      -2.58192534       0.00000000
Si      -2.37993642      -1.20347262       2.89668137       0.00000000
