10
Lattice="16.28999089631971 0.0 0.0 0.0 16.28999089631971 0.0 0.0 0.0 34.54679606040008" Properties=species:S:1:pos:R:3:initial_magmoms:R:1 pbc="T T T"
Si       1.35756787       1.32770016      -1.36347298       0.00000000
Si       1.35082382      -1.35594702       1.35710255       0.00000000
Si      -1.36161811       1.35788553       1.35765530       0.00000000
Si      -1.34332308      -1.37710773      -1.36972250       0.00000000
Si      -0.05685047       2.67213015      -2.62157817       0.00000000
Si       2.71103882      -2.71278999      -0.00297103       0.00000000
Si       2.71110398       0.00120546       2.71513786       0.00000000
Si       2.71506245       2.71210581      -0.00304012       0.00000000
Si      -0.00398453      -2.71391400       2.71527605       0.00000000
Si      -2.71508592      -2.71581993      -0.00252192       0.00000000
