10
Lattice="16.28999089631971 0.0 0.0 0.0 16.28999089631971 0.0 0.0 0.0 34.54679606040008" Properties=species:S:1:pos:R:3:initial_magmoms:R:1 pbc="T T T"
Si       1.36676358       1.34974053      -1.38570731       0.00000000
Si      -1.34512623      -1.36873467      -1.38898926       0.00000000
Si       1.33613838      -1.38289068       1.39762596       0.00000000
Si      -1.41349049       1.44006858       1.68059893       0.00000000
Si      -0.23060287      -2.69262297       2.65298814       0.00000000
Si      -2.69424287       2.71616202       0.00086367       0.00000000
Si       2.71125873       2.71350675      -0.00017273       0.00000000
Si       2.71401174      -2.71412577      -0.03123032       0.00000000
Si      -2.70655811      -2.72422557      -0.02058990       0.00000000
Si      -2.70380510      -0.01231524      -2.74699002       0.00000000
