10
Lattice="16.28999089631971 0.0 0.0 0.0 16.28999089631971 0.0 0.0 0.0 34.54679606040008" Properties=species:S:1:pos:R:3:initial_magmoms:R:1 pbc="T T T"
Si      -0.95648527       1.21197600      -1.69500495       0.00000000
Si       2.15537877       0.50028219       0.70264768       0.00000000
Si      -1.52421132      -0.79338816       1.61447632       0.00000000
Si       1.91873394      -1.43022942      -1.39330761       0.00000000
Si       0.43111485      -1.69489305       3.00902762       0.00000000
Si      -2.15551628      -0.27888480      -2.98961231       0.00000000
Si       2.24727066      -0.05828562       3.03262309       0.00000000
Si       0.61025598       2.52170829      -2.95036713       0.00000000
Si      -2.83969628       1.08558189       2.72602011       0.00000000
Si       0.57878370      -2.89365786      -2.82986783       0.00000000
