10
Lattice="16.28999089631971 0.0 0.0 0.0 16.28999089631971 0.0 0.0 0.0 34.54679606040008" Properties=species:S:1:pos:R:3:initial_magmoms:R:1 pbc="T T T"
Si       0.01151703      -1.78525368       1.47252346       0.00000000
Si      -1.93777695      -0.14934672      -1.36712112       0.00000000
Si       0.59015412       2.03673870       1.10207796       0.00000000
Si       1.74930165      -0.61686972      -1.53861152       0.00000000
Si      -0.91567719      -3.34537956      -0.05966235       0.00000000
Si       2.19460509       1.52593317      -2.39416340       0.00000000
Si       2.17456839      -1.47859443       2.44460175       0.00000000
Si      -0.70033968       3.52755063      -0.17760518       0.00000000
Si      -1.82672802      -2.41232094      -2.08866591       0.00000000
Si      -0.00470781       2.77063578      -2.42995390       0.00000000
