10
Lattice="16.28999089631971 0.0 0.0 0.0 16.28999089631971 0.0 0.0 0.0 34.54679606040008" Properties=species:S:1:pos:R:3:initial_magmoms:R:1 pbc="T T T"
Si      -1.72366771      -0.71531019       1.37217912       0.00000000
Si       0.84909996       1.82532708       1.26721553       0.00000000
Si      -1.01195109       0.59390082      -2.08293912       0.00000000
Si       1.85365539      -1.66255740      -0.15318856       0.00000000
Si      -0.30924936      -2.05974018       2.63028432       0.00000000
Si       1.06927560       0.57598182      -3.15281945       0.00000000
Si       1.63351233      -1.71765018      -2.56334714       0.00000000
Si       2.41070823       0.68492934       2.61384694       0.00000000
Si      -3.02941371      -2.14907454       0.18421537       0.00000000
Si       0.96915726      -3.56465925       1.08095638       0.00000000
