10
Lattice="16.28999089631971 0.0 0.0 0.0 16.28999089631971 0.0 0.0 0.0 34.54679606040008" Properties=species:S:1:pos:R:3:initial_magmoms:R:1 pbc="T T T"
Si      -1.35773875      -1.35708732      -1.35658435       0.00000000
Si       1.35688858       1.35773226      -1.35703345       0.00000000
Si       1.35517813      -1.35506736       1.36245730       0.00000000
Si      -1.35916659       1.35796590       1.36000448       0.00000000
Si       2.71405735       2.71331031      -0.00038001       0.00000000
Si      -0.00059947       2.71497352      -2.71430874       0.00000000
Si       2.71509991       0.00008145      -2.71437783       0.00000000
Si      -0.00021829      -2.71533123      -2.71423964       0.00000000
Si       2.71412251      -2.71580364       0.00020728       0.00000000
Si      -2.71573263       0.00083079      -2.71437783       0.00000000
