10
Lattice="16.28999089631971 0.0 0.0 0.0 16.28999089631971 0.0 0.0 0.0 34.54679606040008" Properties=species:S:1:pos:R:3:initial_magmoms:R:1 pbc="T T T"
Si      -1.01707918       1.38435678       1.75259449       0.00000000
Si      -1.34804541      -1.22925969      -1.70440168       0.00000000
Si       1.28901956       1.37280717      -1.74979620       0.00000000
Si       1.78659760      -1.40838453       1.38273629       0.00000000
Si      -2.98795971      -2.37961062      -0.44731217       0.00000000
Si       2.75106335      -2.73452085      -0.43446075       0.00000000
Si       2.80975622       2.90692511      -0.66195153       0.00000000
Si      -1.52444982       0.37421388       3.81407206       0.00000000
Si      -2.62879779       0.04683375      -3.38413694       0.00000000
Si       0.06544508      -2.66932827      -3.38500061       0.00000000
