10
Lattice="16.2900001489832 0.0 0.0 0.0 16.2900001489832 0.0 0.0 0.0 28.86742770525465" Properties=species:S:1:pos:R:3:initial_magmoms:R:1 pbc="T T T"
Si      -1.35567646      -1.36218610      -1.33304008       0.00000000
Si      -1.35914851       1.36507432       1.33402157       0.00000000
Si       1.31000272       1.37426188      -1.37764025       0.00000000
Si       1.35577762      -1.37206599       1.33670624       0.00000000
Si       2.69831798       0.01679662      -2.67124742       0.00000000
Si      -2.63222619       0.01373899      -2.74312732       0.00000000
Si      -0.00050988      -2.77292781      -2.61195373       0.00000000
Si       2.70753812      -0.01552274       2.68201497       0.00000000
Si       2.68535114       2.71416326      -0.02153510       0.00000000
Si      -2.70468411       0.01360541       2.69820960       0.00000000
