10
Lattice="16.2900001489832 0.0 0.0 0.0 16.2900001489832 0.0 0.0 0.0 28.86742770525465" Properties=species:S:1:pos:R:3:initial_magmoms:R:1 pbc="T T T"
Si       1.34426384       1.35080265      -1.36314880       0.00000000
Si       1.36436570      -1.34837218       1.35347822       0.00000000
Si      -1.34506140      -1.37028223      -1.35108222       0.00000000
Si      -1.35284851       1.37874000       1.33788980       0.00000000
Si      -2.69790421       0.00959481       2.67517339       0.00000000
Si      -2.71419421       0.00360009      -2.67113195       0.00000000
Si       2.70863281      -0.01407456      -2.68602755       0.00000000
Si       2.69602435       2.70734590      -0.01784007       0.00000000
Si       2.71606105       0.03530043       2.69004012       0.00000000
Si       0.01515296      -2.69827562       2.71861887       0.00000000
