10
Lattice="16.2900001489832 0.0 0.0 0.0 16.2900001489832 0.0 0.0 0.0 28.86742770525465" Properties=species:S:1:pos:R:3:initial_magmoms:R:1 pbc="T T T"
Si       1.37336104      -1.43860738      -1.21281590       0.00000000
Si      -1.22318353      -1.39232586       1.45798119       0.00000000
Si       1.40297626       1.28438506       1.40907977       0.00000000
Si      -1.30569238       1.39501045      -1.48653685       0.00000000
Si      -0.13607037      -2.62777413      -2.54056371       0.00000000
Si       2.77065210      -0.13910031      -2.51533820       0.00000000
Si      -2.61149879      -0.03486060       2.75158836       0.00000000
Si      -2.73577521       2.66023847      -0.11835934       0.00000000
Si       0.16148277       2.86616037      -2.51749921       0.00000000
Si      -2.54097938      -2.84362902       0.20183817       0.00000000
