10
Lattice="16.2900001489832 0.0 0.0 0.0 16.2900001489832 0.0 0.0 0.0 28.86742770525465" Properties=species:S:1:pos:R:3:initial_magmoms:R:1 pbc="T T T"
Si      -1.93315061      -1.05740020       0.83946480       0.00000000
Si      -1.16760205       0.34544574      -2.04756665       0.00000000
Si       0.95623930      -2.20046951      -0.10247937       0.00000000
Si      -0.09433539       1.88400368       1.58704457       0.00000000
Si      -1.15698097      -3.20396610       0.14093078       0.00000000
Si      -2.66517434       1.87655915      -1.00484629       0.00000000
Si       3.32475645       0.21499542       0.96529792       0.00000000
H        3.43741809      -1.16178652       0.31124861       0.00000000
Si       1.61337790       2.64139094      -2.25506572       0.00000000
Si       0.79309495       1.09918405       3.58400662       0.00000000
