10
Lattice="16.2900001489832 0.0 0.0 0.0 16.2900001489832 0.0 0.0 0.0 28.86742770525465" Properties=species:S:1:pos:R:3:initial_magmoms:R:1 pbc="T T T"
Si       1.36436896      -1.36487721      -1.32287874       0.00000000
Si       1.35176050       1.35654325       1.34530873       0.00000000
Si      -1.34426384      -1.35080265       1.36314880       0.00000000
Si      -1.35577762       1.37206599      -1.33670624       0.00000000
Si       2.70456356       0.02574635      -2.65424451       0.00000000
Si      -0.02414178       2.70939844       2.66518526       0.00000000
Si      -2.71145407       0.00987989      -2.66974632       0.00000000
Si      -2.69711236       0.02793735       2.70103861       0.00000000
Si      -2.68932525      -2.72108488       0.01206658       0.00000000
Si       0.02010186      -2.69917483       2.71662702       0.00000000
