10
Lattice="16.2900001489832 0.0 0.0 0.0 16.2900001489832 0.0 0.0 0.0 28.86742770525465" Properties=species:S:1:pos:R:3:initial_magmoms:R:1 pbc="T T T"
Si      -1.36878355      -1.35184847       1.34998526       0.00000000
Si      -1.36730116       1.34216569      -1.36190750       0.00000000
Si       1.34420194      -1.37365589      -1.35798153       0.00000000
Si       1.38966733       1.35045730       1.34271066       0.00000000
Si       0.05755257      -2.71186800       2.62557915       0.00000000
Si      -2.71065602       2.70565499      -0.01307694       0.00000000
Si       2.70034445      -0.02627577      -2.71743531       0.00000000
Si      -0.03526785       2.70259247      -2.72598007       0.00000000
Si       0.06411744       2.74136268       2.68796166       0.00000000
Si      -2.71287146      -2.71751737      -0.01024794       0.00000000
