10
Lattice="16.2900001489832 0.0 0.0 0.0 16.2900001489832 0.0 0.0 0.0 28.86742770525465" Properties=species:S:1:pos:R:3:initial_magmoms:R:1 pbc="T T T"
Si       1.48690234      -1.34174215       1.20706262       0.00000000
Si      -1.34162812      -1.58177530      -1.13145883       0.00000000
Si       1.46039851       1.27721746      -1.39643295       0.00000000
Si      -1.30178278       1.27654957       1.55477079       0.00000000
H       -0.78338611       2.77003308      -1.86272851       0.00000000
Si       0.07320726      -2.83095768       2.24718491       0.00000000
H       -0.36004158       1.73309312      -3.18430822       0.00000000
Si      -2.62730009      -0.27033255      -2.57812110       0.00000000
Si       2.84092716       2.44281584       0.07343874       0.00000000
Si       0.16449642       2.57688254       2.81991468       0.00000000
