10
Lattice="16.2900001489832 0.0 0.0 0.0 16.2900001489832 0.0 0.0 0.0 28.86742770525465" Properties=species:S:1:pos:R:3:initial_magmoms:R:1 pbc="T T T"
Si       1.39066102      -1.32405121      -1.27169679       0.00000000
Si       1.44635653       1.31975065       1.27724800       0.00000000
Si      -1.18136710       1.43384581      -1.42508676       0.00000000
Si      -1.42993621      -1.45935595       1.16717650       0.00000000
H       -1.85184722       0.56962873      -2.49179017       0.00000000
Si       0.06050106      -2.58121568      -2.66543901       0.00000000
Si       0.06682158       2.63575460       2.64305261       0.00000000
Si      -2.68651424       2.59993289      -0.07975493       0.00000000
Si      -2.72248256      -0.09265752       2.56505282       0.00000000
Si      -0.03723894      -2.76822489       2.57457907       0.00000000
