10
Lattice="16.2900001489832 0.0 0.0 0.0 16.2900001489832 0.0 0.0 0.0 28.86742770525465" Properties=species:S:1:pos:R:3:initial_magmoms:R:1 pbc="T T T"
Si       1.35135325       1.34100910       1.37114508       0.00000000
Si       1.36397800      -1.38046348      -1.32163744       0.00000000
Si      -1.40232466      -1.35601219       1.31173591       0.00000000
Si      -1.32866128       1.40266675      -1.34112296       0.00000000
Si      -0.05336604      -2.71539641      -2.62474200       0.00000000
Si      -0.03227049      -2.68977224       2.69211857       0.00000000
Si       2.72733698       2.66305664       0.01365429       0.00000000
Si      -2.77501782       0.08291610      -2.61837096       0.00000000
Si      -2.73365751       0.00454491       2.68276553       0.00000000
Si       2.69746112      -2.72103275       0.05464604       0.00000000
