10
Lattice="16.2900001489832 0.0 0.0 0.0 16.2900001489832 0.0 0.0 0.0 28.86742770525465" Properties=species:S:1:pos:R:3:initial_magmoms:R:1 pbc="T T T"
Si      -1.33231024      -1.36635634       1.35639383       0.00000000
Si       1.33424875      -1.37819917      -1.34631909       0.00000000
Si      -1.38720754       1.32766759      -1.34652117       0.00000000
Si       1.37106415       1.34298019       1.36112808       0.00000000
Si      -0.01655064       2.68125257      -2.67973445       0.00000000
Si      -2.59341689      -0.02798622       2.77799917       0.00000000
Si       2.70690932      -0.02257794      -2.67274853       0.00000000
Si      -2.72222192       2.66061314       0.04852615       0.00000000
Si       0.05201397      -2.67998195       2.71163295       0.00000000
Si      -0.04737132      -2.71875215      -2.70230877       0.00000000
