10
Lattice="16.2900001489832 0.0 0.0 0.0 16.2900001489832 0.0 0.0 0.0 28.86742770525465" Properties=species:S:1:pos:R:3:initial_magmoms:R:1 pbc="T T T"
Si      -1.33915204      -1.33586146       1.37694743       0.00000000
Si       1.32897079      -1.37542987      -1.35587421       0.00000000
Si      -1.36480879       1.32693454      -1.37342561       0.00000000
Si       1.37223703       1.34128603       1.36248485       0.00000000
Si      -2.68385897      -2.69602760      -0.02292074       0.00000000
Si      -2.64531683       0.06068025       2.74734196       0.00000000
Si      -0.01166364       2.68763825      -2.70790906       0.00000000
Si       2.69273702      -2.70368390       0.01593482       0.00000000
Si       2.69055416      -0.02839347      -2.70698530       0.00000000
Si       2.70379793       2.70125669      -0.00981493       0.00000000
