10
Lattice="16.2900001489832 0.0 0.0 0.0 16.2900001489832 0.0 0.0 0.0 28.86742770525465" Properties=species:S:1:pos:R:3:initial_magmoms:R:1 pbc="T T T"
Si       0.72361810       2.09753300      -0.76212896       0.00000000
Si      -2.10903374       0.68346325       0.83348924       0.00000000
Si       1.21699333      -1.04234824       1.77268840       0.00000000
Si       0.15136668      -1.44243064      -1.98221079       0.00000000
H       -2.87816284      -0.19554516      -0.14214321       0.00000000
H       -0.69535495       2.10849617       1.94633724       0.00000000
H       -1.38421018       0.59131072      -2.74410881       0.00000000
Si      -0.88591537      -3.23578047       0.58029303       0.00000000
Si       1.09685458      -3.17259156      -0.75649981       0.00000000
Si       2.77164579      -2.29985480       0.59386072       0.00000000
