10
Lattice="16.2900001489832 0.0 0.0 0.0 16.2900001489832 0.0 0.0 0.0 28.86742770525465" Properties=species:S:1:pos:R:3:initial_magmoms:R:1 pbc="T T T"
Si      -1.54101935       1.26271936      -1.20862146       0.00000000
Si       1.46627920       1.30033297       1.26514389       0.00000000
Si      -1.42305857      -1.11068479       1.53231193       0.00000000
Si       1.30178278      -1.27654957      -1.55477079       0.00000000
H        1.33439536      -1.24206364       2.93639475       0.00000000
Si       2.48767850      -0.28443969       2.63065982       0.00000000
Si      -0.15815961       2.56023416      -2.60759474       0.00000000
Si      -0.42969762      -3.22447521       1.86945462       0.00000000
H        0.51839667       1.49348350      -3.41749930       0.00000000
Si      -2.65569470      -0.22685454      -2.69024219       0.00000000
