10
Lattice="16.2900001489832 0.0 0.0 0.0 16.2900001489832 0.0 0.0 0.0 28.86742770525465" Properties=species:S:1:pos:R:3:initial_magmoms:R:1 pbc="T T T"
Si       1.33501438      -1.33294555      -1.39504731       0.00000000
Si       1.37052658       1.39344661       1.30373964       0.00000000
Si      -1.35791812       1.36788760      -1.35391123       0.00000000
Si      -1.33027399      -1.39789378       1.37180903       0.00000000
Si      -2.68986998       0.01309716       2.65138663       0.00000000
Si       2.72222192      -2.66061314      -0.04852615       0.00000000
Si      -2.70629030      -2.68571603      -0.02938704       0.00000000
Si       0.02720430       2.78340717       2.62569462       0.00000000
Si       0.12880503      -2.68859936       2.72947302       0.00000000
Si       2.77483863       0.07754040       2.64855762       0.00000000
