10
Lattice="16.2900001489832 0.0 0.0 0.0 16.2900001489832 0.0 0.0 0.0 28.86742770525465" Properties=species:S:1:pos:R:3:initial_magmoms:R:1 pbc="T T T"
Si       1.35120664      -1.37615152       1.31540208       0.00000000
Si       1.36055710       1.35661492      -1.33246273       0.00000000
Si      -1.34786719      -1.36959154      -1.34473138       0.00000000
Si      -1.29340972       1.38419389       1.38448183       0.00000000
Si       2.62309727       0.02377363       2.66622449       0.00000000
Si      -2.67949325       0.01523115       2.66870709       0.00000000
Si      -0.00716760       2.69291621      -2.68764412       0.00000000
Si      -0.00330687      -2.66607029       2.71636721       0.00000000
Si       2.71448417      -0.01288702      -2.66971745       0.00000000
Si      -2.68066613       2.70518258       0.02996439       0.00000000
