10
Lattice="16.2900001489832 0.0 0.0 0.0 16.2900001489832 0.0 0.0 0.0 28.86742770525465" Properties=species:S:1:pos:R:3:initial_magmoms:R:1 pbc="T T T"
Si      -1.36658440      -1.32620149       1.35988678       0.00000000
Si      -1.38422647       1.38000736      -1.29865897       0.00000000
Si       1.35384562       1.34265439       1.37293486       0.00000000
Si       1.35560494      -1.38846187      -1.33843829       0.00000000
Si       2.72288981       0.00029322      -2.62270107       0.00000000
Si      -2.67814118       0.01664838      -2.67228954       0.00000000
Si       0.00487071      -2.69047271       2.68288100       0.00000000
Si      -2.70187571      -2.68203449      -0.00713025       0.00000000
Si       2.71459820       2.69288168       0.04416716       0.00000000
Si      -0.08164548       2.73031480      -2.67701513       0.00000000
