10
Lattice="16.2900001489832 0.0 0.0 0.0 16.2900001489832 0.0 0.0 0.0 28.86742770525465" Properties=species:S:1:pos:R:3:initial_magmoms:R:1 pbc="T T T"
Si      -1.34104168      -1.37403545       1.33148124       0.00000000
Si      -1.37826433       1.35066093      -1.32599642       0.00000000
Si       1.35373159      -1.38794711      -1.31872183       0.00000000
Si       1.34786719       1.36959154       1.34473138       0.00000000
Si      -2.66491370       0.01244882       2.65756426       0.00000000
Si       2.70684416      -0.02279134      -2.65017420       0.00000000
Si       2.69907383      -0.00655998       2.66013346       0.00000000
Si      -0.02212182       2.69804105      -2.68545020       0.00000000
Si      -2.72759762      -0.02350647      -2.66654203       0.00000000
Si       0.01894527      -2.68751445       2.71400008       0.00000000
