10
Lattice="16.2900001489832 0.0 0.0 0.0 16.2900001489832 0.0 0.0 0.0 28.86742770525465" Properties=species:S:1:pos:R:3:initial_magmoms:R:1 pbc="T T T"
Si      -1.41853321      -1.23953869      -1.35486385       0.00000000
Si      -1.19949787       1.70208510       1.03772629       0.00000000
Si       1.26698734       1.43515879      -1.33226066       0.00000000
Si       1.69372019      -0.86613931       1.45206048       0.00000000
H       -0.24293277       2.84876265       0.84824050       0.00000000
Si       2.58222566       2.40817679       0.34213675       0.00000000
Si      -2.78097996      -2.29594520       0.20749907       0.00000000
Si       2.83685466      -2.35649513       0.00040414       0.00000000
Si      -0.03007134      -2.60501537      -2.64607503       0.00000000
Si       2.68983740       1.16300827       2.28630027       0.00000000
