10
Lattice="16.2900001489832 0.0 0.0 0.0 16.2900001489832 0.0 0.0 0.0 28.86742770525465" Properties=species:S:1:pos:R:3:initial_magmoms:R:1 pbc="T T T"
Si      -0.95363290      -1.71869276       1.24623572       0.00000000
Si       2.06487155       0.76571146       0.79737609       0.00000000
Si      -1.37956753       1.77657113       0.75384401       0.00000000
Si      -0.45323667      -1.00559800      -2.11759903       0.00000000
H        2.27970407       1.83749573      -0.21581289       0.00000000
H        0.94249054       2.59695182      -1.97684145       0.00000000
H        2.17971605       0.94503178      -2.46149669       0.00000000
Si      -3.25298271      -1.50719968       0.66146824       0.00000000
Si      -0.91022005      -1.02069883       3.45893560       0.00000000
Si      -3.37170423       0.73891441       1.43791544       0.00000000
