10
Lattice="16.2900001489832 0.0 0.0 0.0 16.2900001489832 0.0 0.0 0.0 28.86742770525465" Properties=species:S:1:pos:R:3:initial_magmoms:R:1 pbc="T T T"
Si      -0.40167882      -0.83214208      -1.20152008       0.00000000
Si      -1.76236625      -0.62848450       1.68774611       0.00000000
Si      -1.30526884      -2.50263272       0.20443912       0.00000000
H       -0.65632411       2.74897011      -0.39152892       0.00000000
H        0.82383418       2.72749988       0.72688183       0.00000000
Si       1.39440772       1.88384078       1.83399474       0.00000000
Si      -0.28140975       0.72557290       2.97490967       0.00000000
Si       1.59674581      -1.46619775      -2.25549873       0.00000000
Si      -1.93306916       2.25201107      -1.03105792       0.00000000
Si      -1.74983924       0.50751495      -2.58675246       0.00000000
