10
Lattice="16.2900001489832 0.0 0.0 0.0 16.2900001489832 0.0 0.0 0.0 28.86742770525465" Properties=species:S:1:pos:R:3:initial_magmoms:R:1 pbc="T T T"
Si       0.70301125      -0.17791938       2.18156636       0.00000000
Si       1.99213670       1.03765672      -0.68407143       0.00000000
Si      -1.94005757       1.35575155       0.20928885       0.00000000
Si       0.11872152      -2.24611409      -0.77644720       0.00000000
H       -2.35084250      -0.07320726      -1.72878364       0.00000000
Si      -1.03646755       3.02624220      -1.19667035       0.00000000
Si       0.96195709       2.39218652      -2.25064900       0.00000000
Si       2.41807133      -2.45760716      -0.19167972       0.00000000
Si      -3.48723291      -0.40645179       0.65485760       0.00000000
Si       2.46148418      -1.75961324       2.02102016       0.00000000
