10
Lattice="16.2900001489832 0.0 0.0 0.0 16.2900001489832 0.0 0.0 0.0 28.86742770525465" Properties=species:S:1:pos:R:3:initial_magmoms:R:1 pbc="T T T"
Si      -0.98490970      -1.86465116      -0.96560968       0.00000000
Si       1.43306389      -1.17191890       1.40549155       0.00000000
Si       1.25890750       0.42922521      -1.91854945       0.00000000
Si      -1.28220220       1.55937655       1.23123332       0.00000000
Si       0.99210988       2.75890701      -1.95070777       0.00000000
Si       2.64049499      -2.48870477      -0.12461491       0.00000000
Si       0.02213811      -2.47480940       2.73615006       0.00000000
Si       0.77356324      -3.44634501      -1.12615588       0.00000000
Si      -2.65131155       0.28215909       2.64868175       0.00000000
Si       3.34052517      -0.80493778      -1.59197224       0.00000000
