10
Lattice="16.2900001489832 0.0 0.0 0.0 16.2900001489832 0.0 0.0 0.0 28.86742770525465" Properties=species:S:1:pos:R:3:initial_magmoms:R:1 pbc="T T T"
H        0.11266164      -1.37678194      -0.65404931       0.00000000
Si       2.18365823       0.55377856       0.68967172       0.00000000
Si      -0.01765836       1.56025621      -1.76830315       0.00000000
Si      -0.58775950      -0.34678152       2.27697610       0.00000000
Si       1.12547611       0.06990039      -3.21995949       0.00000000
Si       3.14282484      -1.43071813       0.00531161       0.00000000
Si      -3.32475645      -0.21499542      -0.96529792       0.00000000
Si      -2.36851715      -2.41546493      -1.06777728       0.00000000
Si      -0.35375364      -2.62081667       2.60603590       0.00000000
Si      -2.53166150       0.88418863       2.61870870       0.00000000
