10
Lattice="16.2900001489832 0.0 0.0 0.0 16.2900001489832 0.0 0.0 0.0 28.86742770525465" Properties=species:S:1:pos:R:3:initial_magmoms:R:1 pbc="T T T"
H        1.27674505       0.49695903       0.63952899       0.00000000
Si      -1.05972967       1.80346592      -1.05169813       0.00000000
Si       0.18322992      -1.74449612      -1.55569455       0.00000000
Si      -1.19785258      -1.26206776       1.57896169       0.00000000
Si       0.82632655       0.30170709      -2.75701255       0.00000000
H        2.40442031       1.61787394       0.46179224       0.00000000
H        1.93306916      -2.25201107       1.03105792       0.00000000
H        1.48595752       1.66198727       2.27839060       0.00000000
H        2.75690334       0.47548881       1.75793974       0.00000000
Si       1.53139033      -3.08415315      -0.17046216       0.00000000
