10
Lattice="16.2900001489832 0.0 0.0 0.0 16.2900001489832 0.0 0.0 0.0 28.86742770525465" Properties=species:S:1:pos:R:3:initial_magmoms:R:1 pbc="T T T"
Si      -1.36181143       1.35120664      -1.34885943       0.00000000
Si      -1.33156090      -1.35997066       1.37229978       0.00000000
Si       1.31696506       1.41014386       1.33679284       0.00000000
Si       1.34786719      -1.37360539      -1.34649230       0.00000000
Si       2.68509034       0.06079428       2.66691731       0.00000000
Si      -2.65359215       0.03503979       2.71171956       0.00000000
Si      -0.00579924       2.68752422      -2.71270105       0.00000000
Si      -2.70379793      -2.70125669       0.00981493       0.00000000
Si       2.71157071      -0.01860318      -2.69514965       0.00000000
Si      -2.71546157      -0.01361844      -2.69809413       0.00000000
