10
Lattice="16.2900001489832 0.0 0.0 0.0 16.2900001489832 0.0 0.0 0.0 28.86742770525465" Properties=species:S:1:pos:R:3:initial_magmoms:R:1 pbc="T T T"
Si       1.31167081       1.31618314      -1.41256984       0.00000000
Si       1.40410027      -1.37516923       1.27051323       0.00000000
Si      -1.27610974       1.38238570       1.41441736       0.00000000
Si      -1.38385180      -1.35943309      -1.36713251       0.00000000
Si      -2.70834284      -0.11754864       2.48704437       0.00000000
Si      -2.66392001       2.57362454      -0.08212783       0.00000000
Si       2.61278570       2.69138495      -0.01734932       0.00000000
Si       2.63370206      -0.07882731      -2.75198962       0.00000000
Si      -0.06072912       2.64308510      -2.79211534       0.00000000
Si       0.14107140      -3.06053265       2.32541564       0.00000000
