10
Lattice="16.2900001489832 0.0 0.0 0.0 16.2900001489832 0.0 0.0 0.0 28.86742770525465" Properties=species:S:1:pos:R:3:initial_magmoms:R:1 pbc="T T T"
Si      -1.33180525      -1.34721559       1.37547520       0.00000000
Si      -1.36376623       1.32825403      -1.37180903       0.00000000
Si       1.32183577      -1.35793441      -1.38580973       0.00000000
Si       1.36148563       1.33250572       1.37743818       0.00000000
Si      -2.66378969      -2.70423776      -0.02958911       0.00000000
Si       2.66466821      -2.70892928      -0.03539147       0.00000000
Si       2.70541113       2.67085955      -0.00892004       0.00000000
Si      -2.66036879       0.02832831       2.72953076       0.00000000
Si      -2.69273702       2.70368390      -0.01593482       0.00000000
Si      -0.00218286       2.67529043      -2.72292012       0.00000000
