10
Lattice="16.2900001489832 0.0 0.0 0.0 16.2900001489832 0.0 0.0 0.0 28.86742770525465" Properties=species:S:1:pos:R:3:initial_magmoms:R:1 pbc="T T T"
Si       1.36370107      -1.32144481       1.37472464       0.00000000
Si       1.37876932       1.43174440      -1.25221417       0.00000000
Si      -1.33920091       1.36239787       1.38537672       0.00000000
Si      -1.33345054      -1.40390479      -1.36736345       0.00000000
Si       0.00591327       2.75895588      -2.58105692       0.00000000
Si       2.72189612      -2.64763001      -0.00352183       0.00000000
Si      -2.70255989      -2.68112225       0.05008499       0.00000000
Si       0.00356751      -2.65507454       2.74081792       0.00000000
Si       2.69607647       2.71640639       0.17381078       0.00000000
Si      -2.65536776      -0.06605595      -2.76601341       0.00000000
