10
Lattice="16.2900001489832 0.0 0.0 0.0 16.2900001489832 0.0 0.0 0.0 28.86742770525465" Properties=species:S:1:pos:R:3:initial_magmoms:R:1 pbc="T T T"
Si       1.37065690      -1.33460713       1.35053374       0.00000000
Si       1.37598373       1.32204754      -1.35749079       0.00000000
Si      -1.35135325      -1.34100910      -1.37114508       0.00000000
Si      -1.35280306       1.36922338       1.34354782       0.00000000
Si      -0.00206883       2.67123422      -2.67777146       0.00000000
Si      -0.00200367      -2.69022836       2.67696317       0.00000000
Si      -2.68001453       0.06165765      -2.71226804       0.00000000
Si      -2.72345996       0.01563840       2.67676110       0.00000000
Si       2.70557354       2.69648372       0.01524200       0.00000000
Si       2.71875215      -2.69542487      -0.00204959       0.00000000
