10
Lattice="16.2900001489832 0.0 0.0 0.0 16.2900001489832 0.0 0.0 0.0 28.86742770525465" Properties=species:S:1:pos:R:3:initial_magmoms:R:1 pbc="T T T"
Si      -0.08000345       0.78400513       2.20587562       0.00000000
Si       0.76500447      -2.22167420      -0.10250824       0.00000000
Si       1.63174651       1.70281489      -0.39891898       0.00000000
Si      -2.16742362      -0.56071321      -0.94745784       0.00000000
Si       3.21920702       0.56661996       0.87491400       0.00000000
Si       1.98128104      -0.03538188       2.82389838       0.00000000
Si       1.39300027       2.12685989      -2.66302021       0.00000000
Si      -2.27503536       0.68445531      -2.89162137       0.00000000
Si      -3.71885065       0.33452819       0.58725008       0.00000000
Si      -1.30159382      -0.65403862       3.48946579       0.00000000
