10
Lattice="16.2900001489832 0.0 0.0 0.0 16.2900001489832 0.0 0.0 0.0 28.86742770525465" Properties=species:S:1:pos:R:3:initial_magmoms:R:1 pbc="T T T"
Si      -0.22457394       1.27570249      -0.75800092       0.00000000
H        1.23722551      -1.65192005      -0.48465524       0.00000000
H        1.33721353      -0.75945610       1.76102856       0.00000000
H       -1.26752491      -1.26425062      -1.58115562       0.00000000
H       -1.92700928      -0.84162286      -1.40587260       0.00000000
Si       1.65936295       2.23115987       0.14586711       0.00000000
Si      -2.01412820       2.25880400       0.37348678       0.00000000
H        0.65133937       0.93011014       2.84153638       0.00000000
Si       2.63374931      -1.39856167      -0.95346227       0.00000000
Si      -0.50127588       1.12409146      -3.10769406       0.00000000
