10
Lattice="16.2900001489832 0.0 0.0 0.0 16.2900001489832 0.0 0.0 0.0 28.86742770525465" Properties=species:S:1:pos:R:3:initial_magmoms:R:1 pbc="T T T"
H       -0.36033480      -1.14212449       1.17559713       0.00000000
Si       1.26110665      -1.33837012      -1.42160534       0.00000000
Si       1.33421617       1.40532202       1.28740067       0.00000000
Si      -1.45907902       1.29070558      -1.35766399       0.00000000
H       -1.95761819      -1.99785449       0.66195898       0.00000000
H       -2.38096271      -0.96091453       1.98353869       0.00000000
Si      -0.13717809      -2.45373014       2.44983425       0.00000000
Si       2.64543086      -2.65199573      -0.06636622       0.00000000
Si      -0.03971502       2.76895794       2.59558589       0.00000000
Si       2.59341689       0.02798622      -2.77799917       0.00000000
