10
Lattice="16.2900001489832 0.0 0.0 0.0 16.2900001489832 0.0 0.0 0.0 28.86742770525465" Properties=species:S:1:pos:R:3:initial_magmoms:R:1 pbc="T T T"
Si       0.45323667       1.00559800       2.11759903       0.00000000
Si       0.93994930       0.07933230      -2.20425904       0.00000000
Si      -2.17183169       0.63545662      -0.81686160       0.00000000
Si       0.02493999      -2.37634450       0.49877142       0.00000000
H        0.12820230       2.33829920      -1.44039804       0.00000000
H       -0.48638682       0.29794410      -2.73218656       0.00000000
H       -0.53128206       2.76092697      -1.26511502       0.00000000
H       -1.35640315      -1.58583151      -2.47399629       0.00000000
H        2.63295272       1.95062978      -0.34389767       0.00000000
Si      -0.50039622      -0.71309476       3.36383475       0.00000000
