10
Lattice="16.2900001489832 0.0 0.0 0.0 16.2900001489832 0.0 0.0 0.0 28.86742770525465" Properties=species:S:1:pos:R:3:initial_magmoms:R:1 pbc="T T T"
H       -1.15328314      -0.95762395       0.30573493       0.00000000
Si      -1.02139930       1.58477266      -1.36551593       0.00000000
Si       0.74282401       0.80179381       2.10339625       0.00000000
Si       1.54096885      -1.24649452      -1.30039102       0.00000000
H        2.25825014       1.44502075       0.33405387       0.00000000
H        2.62391177      -1.39725847       1.61446863       0.00000000
Si      -2.48767850       0.28443969      -2.63065982       0.00000000
Si      -0.79014646      -0.16053795       3.62459422       0.00000000
Si      -2.21519567       3.05838237      -0.03264906       0.00000000
Si       2.91584487      -0.14216283       2.40353090       0.00000000
