10
Lattice="16.2900001489832 0.0 0.0 0.0 16.2900001489832 0.0 0.0 0.0 28.86742770525465" Properties=species:S:1:pos:R:3:initial_magmoms:R:1 pbc="T T T"
Si       1.37560906       1.40208846       1.23842420       0.00000000
Si      -1.49252239       1.30374573      -1.21624246       0.00000000
Si       1.33522615      -1.43375785      -1.27259746       0.00000000
Si      -1.38857590      -1.35416491       1.33143505       0.00000000
Si      -0.07405434      -2.64661352      -2.64231071       0.00000000
Si       2.65215880       0.02616337       2.64851144       0.00000000
Si      -0.01964574       2.68828008       2.64747221       0.00000000
Si       2.70331754       2.64146262      -0.29846611       0.00000000
Si      -2.78213655      -0.00724188      -2.61890760       0.00000000
Si      -0.06832026      -2.70584396       2.70627516       0.00000000
