10
Lattice="16.2900001489832 0.0 0.0 0.0 16.2900001489832 0.0 0.0 0.0 28.86742770525465" Properties=species:S:1:pos:R:3:initial_magmoms:R:1 pbc="T T T"
Si      -0.79671133      -1.74921859       1.26159897       0.00000000
Si      -0.04341285      -0.69799393      -2.21269988       0.00000000
Si       1.86693176       0.95764024       1.00154097       0.00000000
Si      -1.75847294       1.58169385       0.16054620       0.00000000
Si      -2.16525053      -0.46656189       2.65642689       0.00000000
Si       0.65950066       2.27442611       2.53164743       0.00000000
Si      -2.46148418       1.75961324      -2.02102016       0.00000000
Si      -2.34276266      -0.48650085      -2.79746736       0.00000000
Si      -2.08632548      -3.06020620      -0.14106617       0.00000000
Si      -0.77356324       3.44634501       1.12615588       0.00000000
