10
Lattice="16.2900001489832 0.0 0.0 0.0 16.2900001489832 0.0 0.0 0.0 28.86742770525465" Properties=species:S:1:pos:R:3:initial_magmoms:R:1 pbc="T T T"
H        0.67655629      -1.06675066      -0.80990455       0.00000000
Si      -1.18190956       1.31895244      -1.51213360       0.00000000
Si       1.61238421       1.30515481       1.08916805       0.00000000
Si      -1.38285974      -1.29751480       1.39897328       0.00000000
H        1.09990081      -2.10369062      -2.13148426       0.00000000
H        2.69718419      -1.24796062      -1.61784612       0.00000000
Si       0.28672029       2.68938128       2.39114677       0.00000000
Si       0.15815961      -2.56023416       2.60759474       0.00000000
Si      -2.51430304       2.70024671      -0.17978634       0.00000000
Si      -2.49753509      -2.78708871      -0.08264745       0.00000000
