10
Lattice="16.2900001489832 0.0 0.0 0.0 16.2900001489832 0.0 0.0 0.0 28.86742770525465" Properties=species:S:1:pos:R:3:initial_magmoms:R:1 pbc="T T T"
Si       0.57057355      -0.84365911       1.10711291       0.00000000
H       -0.35248302       1.14238513      -1.29614750       0.00000000
H       -1.27094581       1.18649845       0.52045085       0.00000000
H       -1.48015828       0.02147022      -1.11841075       0.00000000
Si       0.79566877       1.98280253      -1.77041047       0.00000000
H       -0.82383418      -2.72749988      -0.72688183       0.00000000
Si       1.55603710       0.82308484       2.43298433       0.00000000
Si      -1.10524393      -2.00192699       2.24802784       0.00000000
Si      -2.75690334      -0.47548881      -1.75793974       0.00000000
Si       2.49098537      -2.14024538       0.46473672       0.00000000
