10
Lattice="16.2900001489832 0.0 0.0 0.0 16.2900001489832 0.0 0.0 0.0 28.86742770525465" Properties=species:S:1:pos:R:3:initial_magmoms:R:1 pbc="T T T"
H        0.95656510       1.14667755      -0.18948580       0.00000000
Si       0.12445560      -0.23152489       2.29140981       0.00000000
Si       1.19949787      -1.70208510      -1.03772629       0.00000000
Si      -1.75068632       1.08393661      -1.12453065       0.00000000
Si       2.46648521      -0.26692631      -2.36998695       0.00000000
Si      -1.02449440       1.76107119       2.83206786       0.00000000
Si      -0.39817647       2.57498476      -2.36025862       0.00000000
H        1.82658143       3.03045316      -0.44767607       0.00000000
Si       2.33790824       0.35616456       2.78328191       0.00000000
Si       0.14113656       3.36796568       1.46764889       0.00000000
