10
Lattice="16.2900001489832 0.0 0.0 0.0 16.2900001489832 0.0 0.0 0.0 28.86742770525465" Properties=species:S:1:pos:R:3:initial_magmoms:R:1 pbc="T T T"
Si      -1.32203125       1.39501045       1.33941978       0.00000000
Si       1.33156090       1.35997066      -1.37229978       0.00000000
Si      -1.37223703      -1.34128603      -1.36248485       0.00000000
Si       1.39307194      -1.29762883       1.38959137       0.00000000
Si      -2.63370206       0.07882731       2.75198962       0.00000000
Si      -2.71138907      -2.67714749       0.01446258       0.00000000
Si       2.68198562      -2.71246421       0.03088815       0.00000000
Si       2.67942809      -0.01363473      -2.71879208       0.00000000
Si       2.67105503       0.16953003       2.73951889       0.00000000
Si      -2.69443118       2.72191241      -0.04012572       0.00000000
