10
Lattice="16.2900001489832 0.0 0.0 0.0 16.2900001489832 0.0 0.0 0.0 28.86742770525465" Properties=species:S:1:pos:R:3:initial_magmoms:R:1 pbc="T T T"
Si      -1.22709476      -1.41703453       1.41214260       0.00000000
Si       1.43008282      -1.26522802      -1.36817751       0.00000000
Si      -1.51102132       1.21472902      -1.39446996       0.00000000
Si       1.40682070       1.32778162       1.43347563       0.00000000
Si      -2.49024401      -2.81624781      -0.03242967       0.00000000
Si       2.89725798       0.20592189      -2.39913987       0.00000000
Si      -2.52702358      -0.03174921       2.82116175       0.00000000
Si       2.73577521      -2.66023847       0.11835934       0.00000000
Si      -2.68100822       2.71981100      -0.00868044       0.00000000
Si      -0.42876909       1.93173338      -3.33833904       0.00000000
