10
Lattice="16.2900001489832 0.0 0.0 0.0 16.2900001489832 0.0 0.0 0.0 28.86742770525465" Properties=species:S:1:pos:R:3:initial_magmoms:R:1 pbc="T T T"
H       -0.76912910      -0.87900841      -0.97563245       0.00000000
H        1.41367879       1.42503292       1.11284800       0.00000000
Si      -1.08225222      -0.71700436       1.94386907       0.00000000
Si       2.10903374      -0.68346325      -0.83348924       0.00000000
Si      -0.81443648       2.16088481      -0.55679495       0.00000000
H       -2.95655358       0.21128130      -1.46770663       0.00000000
Si      -2.89364160      -1.69507226       0.66071769       0.00000000
Si       2.83265184       1.41406975      -1.59561820       0.00000000
Si      -2.59364495       1.58835646      -1.95721160       0.00000000
Si       1.11169477       3.09593082      -1.53456359       0.00000000
