10
Lattice="16.2900001489832 0.0 0.0 0.0 16.2900001489832 0.0 0.0 0.0 28.86742770525465" Properties=species:S:1:pos:R:3:initial_magmoms:R:1 pbc="T T T"
Si      -1.36422235      -1.33858189       1.35186164       0.00000000
Si      -1.38815236       1.33516099      -1.33410817       0.00000000
Si       1.33799545      -1.37883448      -1.34588608       0.00000000
Si       1.35689185       1.36599796       1.34207558       0.00000000
Si      -0.02873556       2.71989245      -2.63285374       0.00000000
Si      -0.00355122      -2.68569974       2.70150049       0.00000000
Si      -2.70576902       0.03033198       2.70057673       0.00000000
Si       2.72536215      -0.05463666      -2.68233251       0.00000000
Si       0.00389331       2.73147465       2.68596981       0.00000000
Si      -2.72306900      -2.69592986       0.00118356       0.00000000
