10
Lattice="16.2900001489832 0.0 0.0 0.0 16.2900001489832 0.0 0.0 0.0 28.86742770525465" Properties=species:S:1:pos:R:3:initial_magmoms:R:1 pbc="T T T"
Si       1.32075249       1.22942260      -1.45333065       0.00000000
Si      -0.71431488       1.94510747       1.05527769       0.00000000
Si       1.46467464      -1.24625017       1.36112808       0.00000000
Si      -1.64963130      -1.32147739      -1.04811857       0.00000000
Si      -0.63356372       1.33763707       3.28750927       0.00000000
Si      -0.34882755      -2.75747349      -2.44550414       0.00000000
Si       2.64778477       2.59095710      -0.04255059       0.00000000
Si      -0.07672753       2.59444316      -2.74497483       0.00000000
Si       2.65847101      -2.71985987       0.02826121       0.00000000
Si       2.64641641      -0.15480387      -2.75530937       0.00000000
