10
Lattice="16.2900001489832 0.0 0.0 0.0 16.2900001489832 0.0 0.0 0.0 28.86742770525465" Properties=species:S:1:pos:R:3:initial_magmoms:R:1 pbc="T T T"
Si       0.88743034      -0.78481963       1.99696205       0.00000000
Si      -2.15098049       0.29978487       0.92395976       0.00000000
Si       0.63267103       2.22794748      -0.51297419       0.00000000
Si       0.09433539      -1.88400368      -1.58704457       0.00000000
H       -0.26072145      -1.62523702       2.47122502       0.00000000
Si      -3.03844341       1.52158375      -0.80444861       0.00000000
Si      -1.83881522      -2.94140388      -0.74757978       0.00000000
Si      -2.57083895      -0.00744453      -2.59189086       0.00000000
Si       0.50821542       2.45947237      -2.80438400       0.00000000
Si       2.83133235      -2.01578978       1.65522944       0.00000000
