10
Lattice="16.2900001489832 0.0 0.0 0.0 16.2900001489832 0.0 0.0 0.0 28.86742770525465" Properties=species:S:1:pos:R:3:initial_magmoms:R:1 pbc="T T T"
Si      -1.29254635       1.36669843       1.39787632       0.00000000
Si       1.42993621       1.45935595      -1.16717650       0.00000000
Si       1.39269727      -1.30886893       1.40740257       0.00000000
Si      -1.40682070      -1.32778162      -1.43347563       0.00000000
Si       2.82059724       0.13530474      -2.43887329       0.00000000
Si      -2.67477241       2.67309128       0.00606216       0.00000000
Si      -2.63391546      -2.74481616      -0.02133303       0.00000000
Si      -2.60111229      -0.00014661       2.77837445       0.00000000
Si       0.02326212      -2.59300964      -2.80165314       0.00000000
Si       2.73193076      -2.70363503       0.09396348       0.00000000
