10
Lattice="16.2900001489832 0.0 0.0 0.0 16.2900001489832 0.0 0.0 0.0 28.86742770525465" Properties=species:S:1:pos:R:3:initial_magmoms:R:1 pbc="T T T"
H        0.63877978       0.04220739       2.15351011       0.00000000
Si      -1.69254731      -1.13448448      -1.13948397       0.00000000
Si      -1.52761105       1.32115159       1.20876580       0.00000000
Si       1.26302887       1.68536342      -1.05490241       0.00000000
Si       1.58908951      -1.92376757       0.47847761       0.00000000
H       -2.36232695       0.30257046       1.96930705       0.00000000
Si       2.59563233       0.27380232      -2.34233195       0.00000000
Si      -0.34091712      -2.42264882      -2.52861346       0.00000000
Si       0.57583522      -0.78376078       3.42731422       0.00000000
Si       3.54055008      -0.67927672      -0.39357851       0.00000000
