10
Lattice="16.2900001489832 0.0 0.0 0.0 16.2900001489832 0.0 0.0 0.0 28.86742770525465" Properties=species:S:1:pos:R:3:initial_magmoms:R:1 pbc="T T T"
Si       1.46717515       1.47114991      -1.03096236       0.00000000
Si      -1.43008282       1.26522802       1.36817751       0.00000000
Si       1.30569238      -1.39501045       1.48653685       0.00000000
Si      -0.63573355      -0.72228232      -2.22335773       0.00000000
Si      -0.80874964      -2.88906411      -1.56321740       0.00000000
Si       3.02182761       0.21364335      -2.20979004       0.00000000
Si       0.25018182       2.51349815      -2.80365077       0.00000000
Si      -0.02326212       2.59300964       2.80165314       0.00000000
Si      -2.94110414       2.47995704      -0.02629245       0.00000000
Si      -2.65717758      -0.15180651       2.78032011       0.00000000
