10
Lattice="16.2900001489832 0.0 0.0 0.0 16.2900001489832 0.0 0.0 0.0 28.86742770525465" Properties=species:S:1:pos:R:3:initial_magmoms:R:1 pbc="T T T"
Si       1.36812527      -1.34934958       1.33012447       0.00000000
Si       1.39439795       1.33501438      -1.33168331       0.00000000
Si      -1.31696506      -1.41014386      -1.33679284       0.00000000
Si      -1.37148769       1.35350353       1.34331688       0.00000000
Si      -2.67877649      -0.05893722      -2.68565227       0.00000000
Si       0.03437190       2.64671777      -2.71801266       0.00000000
Si       0.02252907      -2.60058449       2.77502583       0.00000000
Si       2.77166859       0.00480555       2.60941339       0.00000000
Si      -0.03792312       2.80246647       2.58816697       0.00000000
Si      -2.64852596      -2.77011453       0.03550694       0.00000000
