10
Lattice="16.2900001489832 0.0 0.0 0.0 16.2900001489832 0.0 0.0 0.0 28.86742770525465" Properties=species:S:1:pos:R:3:initial_magmoms:R:1 pbc="T T T"
Si      -0.66746647      -2.12514455      -0.56522423       0.00000000
Si       0.45224298       1.15306648      -1.93593630       0.00000000
Si      -1.14854275       1.40667409       1.45099239       0.00000000
Si       2.31883265      -0.11947086       0.37998195       0.00000000
Si      -1.73835479      -2.41945598       1.44120633       0.00000000
Si       0.84289348       2.08305119       2.44639903       0.00000000
Si       1.49053501      -0.62960851      -3.01084384       0.00000000
Si       2.57575853       2.19717893       0.74882107       0.00000000
Si       2.78643711      -1.64849915      -1.40746031       0.00000000
Si       1.58136805      -3.31123575      -0.23521180       0.00000000
