10
Lattice="16.2900001489832 0.0 0.0 0.0 16.2900001489832 0.0 0.0 0.0 28.86742770525465" Properties=species:S:1:pos:R:3:initial_magmoms:R:1 pbc="T T T"
Si       1.38103200       1.33842127      -1.31543672       0.00000000
Si       1.39491108      -1.35475786       1.28869971       0.00000000
Si      -1.35516658       1.41074171       1.27891365       0.00000000
Si      -1.37854436      -1.40028841      -1.27657539       0.00000000
Si      -2.67209922      -0.04917951      -2.64219524       0.00000000
Si       0.02358303      -2.70265763       2.62422238       0.00000000
Si      -2.70217056       0.05365926       2.64067682       0.00000000
Si       2.72065646       0.03598461       2.62578122       0.00000000
Si      -0.03344174      -2.66620061      -2.70447095       0.00000000
Si       0.00050988       2.77292781       2.61195373       0.00000000
