10
Lattice="10.86 0.0 0.0 0.0 10.86 0.0 0.0 0.0 10.86" Properties=species:S:1:pos:R:3:initial_magmoms:R:1 pbc="T T T"
Si      -1.24516416       1.49558490      -1.15388586       0.00000000
Si      -1.11281334      -1.17056682       1.66213386       0.00000000
Si      -2.41036614      -0.06108750      -2.44613898       0.00000000
Si       0.23293614      -2.61766182      -2.51962860       0.00000000
Si       0.12962496       2.88533910      -2.38985160       0.00000000
Si      -2.59557258       2.75131584       0.12183834       0.00000000
Si       2.86200096       0.11626716      -2.49605154       0.00000000
Si      -2.42845890       0.17493288       3.02784402       0.00000000
Si       2.82373032      -2.71994130       0.27774450       0.00000000
Si       0.15314772       2.74547316       2.88767400       0.00000000
