10
Lattice="10.86 0.0 0.0 0.0 10.86 0.0 0.0 0.0 10.86" Properties=species:S:1:pos:R:3:initial_magmoms:R:1 pbc="T T T"
Si       1.32089094      -1.37919828      -1.29589122       0.00000000
Si      -1.39410906       1.33580172      -1.29589122       0.00000000
Si      -1.39410906      -1.37919828       1.41910878       0.00000000
Si      -0.23293614       2.61766182       2.51962860       0.00000000
Si      -2.64330228       2.55657432       0.07348962       0.00000000
Si       2.67839094      -0.02169828      -2.65339122       0.00000000
Si      -0.03660906       2.69330172      -2.65339122       0.00000000
Si       2.62906482       2.73392898       0.02357706       0.00000000
Si      -0.03660906      -2.73669828      -2.65339122       0.00000000
Si       2.59079418      -0.10227948       2.79737310       0.00000000
