10
Lattice="16.290000149 0.0 0.0 0.0 16.290000149 0.0 0.0 0.0 29.1751946751" Properties=species:S:1:pos:R:3:initial_magmoms:R:1 pbc="T T T"
Si      -1.36226755       1.36961434       1.26220645       0.00000000
Si      -1.41985270      -1.31010697      -1.31390489       0.00000000
Si       1.33794658       1.44730135      -1.25602131       0.00000000
Si       1.29665143      -1.30350952       1.46080200       0.00000000
Si      -2.77741245       0.04333140       2.50107274       0.00000000
Si       2.68185530       0.08229708      -2.60729962       0.00000000
Si      -0.04082274      -2.65696418      -2.63554121       0.00000000
Si       2.68027517      -2.64707615       0.12501571       0.00000000
Si      -0.04927725       2.78992317      -2.60301087       0.00000000
Si      -2.78177817       0.08426817      -2.61870712       0.00000000
