10
Lattice="16.290000149 0.0 0.0 0.0 16.290000149 0.0 0.0 0.0 29.1751946751" Properties=species:S:1:pos:R:3:initial_magmoms:R:1 pbc="T T T"
Si       1.71545105      -0.75298897      -1.38958535       0.00000000
Si       1.35915616       1.34982199       1.33488186       0.00000000
Si      -1.43075560       1.18758988      -1.44277173       0.00000000
Si      -1.19754470      -1.69070654       1.18352095       0.00000000
Si      -1.66918745      -0.65552590      -2.89193282       0.00000000
Si       0.63957799      -0.83779471      -3.48973256       0.00000000
Si       2.56130930      -2.59698440      -0.26342283       0.00000000
Si      -2.65721098      -0.39710133       2.51921971       0.00000000
Si      -0.08327448       2.54066987       2.69450632       0.00000000
Si       2.63635733      -0.14481810       2.67318217       0.00000000
