10
Lattice="16.290000149 0.0 0.0 0.0 16.290000149 0.0 0.0 0.0 29.1751946751" Properties=species:S:1:pos:R:3:initial_magmoms:R:1 pbc="T T T"
Si      -1.37330566       1.45510915      -1.16175625       0.00000000
Si       1.53028261      -1.25934733      -1.21736417       0.00000000
Si       0.84802483       1.66002432       1.39620812       0.00000000
Si      -0.92566297      -1.72256978       1.29319050       0.00000000
H        0.23786658       2.96719095       0.95251176       0.00000000
Si       2.56109753      -2.08891559       0.73492315       0.00000000
Si       0.12083922      -2.65282652      -2.52029919       0.00000000
Si      -2.60594276       0.09567166      -2.60715375       0.00000000
Si       0.08728182       1.06182945       3.55170067       0.00000000
Si       0.72982459      -3.37866006       1.37794444       0.00000000
