10
Lattice="16.290000149 0.0 0.0 0.0 16.290000149 0.0 0.0 0.0 29.1751946751" Properties=species:S:1:pos:R:3:initial_magmoms:R:1 pbc="T T T"
Si      -1.37218816      -1.40623426      -1.31245780       0.00000000
Si      -1.34638480       1.27957951       1.46062695       0.00000000
Si       1.33985251      -1.33626871       1.42176559       0.00000000
Si       1.34156296       1.41812596      -1.35993751       0.00000000
Si       2.67273290      -0.01756062      -2.67847543       0.00000000
Si       0.05962140      -2.77809663      -2.59731879       0.00000000
Si      -2.68063355      -2.69534342       0.15880058       0.00000000
Si      -2.77988853       2.59902065       0.17793951       0.00000000
Si      -2.72088614      -0.04386897      -2.68919148       0.00000000
Si       2.68822469       2.74983348       0.03040055       0.00000000
