10
Lattice="16.290000149 0.0 0.0 0.0 16.290000149 0.0 0.0 0.0 29.1751946751" Properties=species:S:1:pos:R:3:initial_magmoms:R:1 pbc="T T T"
Si       1.67713697      -1.67936870      -0.25046905       0.00000000
Si      -1.86202847      -0.84198124      -1.25228688       0.00000000
Si      -0.63219862       0.33151779       2.32905579       0.00000000
Si       0.69129874       1.86131171      -1.42016095       0.00000000
H        2.21653145       0.78516172       1.12482046       0.00000000
H       -1.06380217       2.49678461       0.11162429       0.00000000
H       -2.61386084      -0.29028780       1.24601421       0.00000000
H        0.59295601      -1.62409672       2.55014542       0.00000000
H       -0.49441779       2.37216611      -2.21982386       0.00000000
H       -3.26383185       0.13398525       1.20397276       0.00000000
