10
Lattice="16.290000149 0.0 0.0 0.0 16.290000149 0.0 0.0 0.0 29.1751946751" Properties=species:S:1:pos:R:3:initial_magmoms:R:1 pbc="T T T"
Si       1.35641944       1.34006428      -1.31478598       0.00000000
Si       1.43350372      -1.31944114       1.28268743       0.00000000
Si      -1.33532389       1.44067132       1.29053556       0.00000000
Si      -1.30406338      -1.29476179      -1.47629986       0.00000000
Si      -0.04952160       2.70340697      -2.56847911       0.00000000
Si       0.05356152      -2.63710667       2.64654026       0.00000000
Si      -2.67125051      -2.64469781      -0.12554086       0.00000000
Si      -2.69938334       0.07946262       2.61975743       0.00000000
Si       2.77988853      -2.59902065      -0.17793951       0.00000000
Si       2.76864843       0.08488719       2.62156629       0.00000000
