10
Lattice="16.290000149 0.0 0.0 0.0 16.290000149 0.0 0.0 0.0 29.1751946751" Properties=species:S:1:pos:R:3:initial_magmoms:R:1 pbc="T T T"
H        0.11413426      -1.46405399      -0.59499892       0.00000000
Si       1.38309432       1.42457029      -1.27845703       0.00000000
Si      -0.96074348       0.78880416       2.04801114       0.00000000
Si      -2.03231598      -0.78184670      -1.05920544       0.00000000
Si       1.90922874      -1.10277958       1.07472665       0.00000000
H        2.62936078       1.44379249      -0.41810971       0.00000000
H       -3.19553602       0.20902677      -1.08908084       0.00000000
Si       0.53836659      -2.54789286       2.34947843       0.00000000
Si       1.93490178      -0.11421734      -3.01417689       0.00000000
Si       0.37440611       2.79566702       2.52765134       0.00000000
