10
Lattice="16.290000149 0.0 0.0 0.0 16.290000149 0.0 0.0 0.0 29.1751946751" Properties=species:S:1:pos:R:3:initial_magmoms:R:1 pbc="T T T"
H       -0.17528040       1.38859545       0.60792353       0.00000000
Si       0.83774584      -1.24199522       1.71246723       0.00000000
Si       1.89296318       0.01420814      -1.33984164       0.00000000
Si      -1.89716600      -0.54516440      -1.29082731       0.00000000
Si      -2.61682562       1.64825805      -0.88610901       0.00000000
Si       0.65125792       1.12580517      -2.94675301       0.00000000
Si      -0.68154103       2.67423484      -1.79018995       0.00000000
Si       1.87766687       0.61186381       2.66307676       0.00000000
Si       2.33438960      -2.27417850      -1.04094177       0.00000000
Si      -0.99430903      -2.26402983       2.65440589       0.00000000
