10
Lattice="16.290000149 0.0 0.0 0.0 16.290000149 0.0 0.0 0.0 29.1751946751" Properties=species:S:1:pos:R:3:initial_magmoms:R:1 pbc="T T T"
Si      -2.19372545       0.72327601       0.46861198       0.00000000
Si      -0.26559216      -2.03093948       1.19632886       0.00000000
Si       1.57441222       1.31116582       1.20435204       0.00000000
Si      -0.28507500       0.88585021      -2.24100505       0.00000000
H        2.24907887      -0.95348629      -1.63474451       0.00000000
H        0.81019945      -1.86382037      -2.18227539       0.00000000
H        1.61718976      -2.61346988      -0.53022999       0.00000000
H        1.04780539      -2.48885138       1.80121817       0.00000000
Si      -2.14912343       2.86829761      -0.51289992       0.00000000
Si      -2.41186484      -0.08426817      -2.92037864       0.00000000
