10
Lattice="16.290000149 0.0 0.0 0.0 16.290000149 0.0 0.0 0.0 29.1751946751" Properties=species:S:1:pos:R:3:initial_magmoms:R:1 pbc="T T T"
Si       1.35757766      -1.40592475       1.31317551       0.00000000
Si      -1.45966628       1.29360520       1.33569876       0.00000000
Si       1.19754470       1.69070654      -1.18352095       0.00000000
Si      -1.10410200      -1.70893505      -1.25214101       0.00000000
Si       2.36250777      -2.64489329      -0.53133865       0.00000000
Si      -2.77166045      -2.49093650       0.19882895       0.00000000
Si       2.53244505       0.06240699       2.76248832       0.00000000
Si      -2.84620349       2.48355713      -0.13105497       0.00000000
Si      -0.13105468      -2.61265538       2.74012553       0.00000000
Si       0.30607444      -3.66621114      -1.25494182       0.00000000
