10
Lattice="16.290000149 0.0 0.0 0.0 16.290000149 0.0 0.0 0.0 29.1751946751" Properties=species:S:1:pos:R:3:initial_magmoms:R:1 pbc="T T T"
Si       1.37330566      -1.45510915       1.16175625       0.00000000
Si      -1.23263711      -1.35943749      -1.44539749       0.00000000
Si       1.40875270       1.29641848      -1.38833081       0.00000000
Si      -1.21704758       1.28856670       1.60285602       0.00000000
H        1.61117224       1.51208180       2.11426801       0.00000000
Si       2.22133048       0.20491517       2.55796437       0.00000000
Si      -2.50708641       2.63583117       0.10351359       0.00000000
Si      -2.54393439      -2.69660264      -0.07906478       0.00000000
Si       0.06054830       2.63241027      -2.76394124       0.00000000
Si      -2.70176820      -0.06615369      -2.71691083       0.00000000
