10
Lattice="16.290000149 0.0 0.0 0.0 16.290000149 0.0 0.0 0.0 29.1751946751" Properties=species:S:1:pos:R:3:initial_magmoms:R:1 pbc="T T T"
Si       0.89661790       0.07657929      -1.22436622       0.00000000
H       -1.28322847      -1.75019762      -0.43444782       0.00000000
H        1.88753861       0.43526880       1.23533609       0.00000000
Si      -1.82035865      -2.01122858       0.94956506       0.00000000
Si       1.17366193       2.95244687       0.24235834       0.00000000
Si       0.00619020       1.50283396      -2.81193444       0.00000000
Si       1.23621553      -2.04288005      -2.15625111       0.00000000
Si       2.78130576       1.41968980      -0.83980798       0.00000000
Si      -2.66172086      -0.14014287       2.07216820       0.00000000
H       -2.86304898      -0.94260457      -1.62074041       0.00000000
