10
Lattice="16.290000149 0.0 0.0 0.0 16.290000149 0.0 0.0 0.0 29.1751946751" Properties=species:S:1:pos:R:3:initial_magmoms:R:1 pbc="T T T"
Si       1.37508778       1.34242633      -1.34211731       0.00000000
Si       1.36192546      -1.39437514       1.30480223       0.00000000
Si      -1.35433432      -1.35365014      -1.36049768       0.00000000
Si      -1.35234694       1.36990756       1.35069481       0.00000000
Si       0.00589698       2.69044013      -2.68338853       0.00000000
Si       2.78177817      -0.08426817       2.61870712       0.00000000
Si      -2.74123236       0.01026270       2.66395785       0.00000000
Si       0.01278765      -2.75227698       2.65800611       0.00000000
Si       0.01475874      -2.73235430      -2.68365111       0.00000000
Si       0.02441871       2.73587295       2.68735636       0.00000000
