10
Lattice="16.290000149 0.0 0.0 0.0 16.290000149 0.0 0.0 0.0 29.1751946751" Properties=species:S:1:pos:R:3:initial_magmoms:R:1 pbc="T T T"
Si      -1.30474756      -1.35210259       1.43330729       0.00000000
Si       1.35977030      -1.45751518      -1.28857791       0.00000000
Si       1.38967385       1.28995624       1.43313224       0.00000000
Si      -1.30262986       1.52495578      -1.31994416       0.00000000
Si       2.70953201       0.00144981      -2.52089232       0.00000000
Si      -2.53247600       2.73345421       0.27449482       0.00000000
Si      -2.65140929      -2.68381010       0.04296923       0.00000000
Si       2.80220583       2.68051952       0.17680460       0.00000000
Si      -2.64850967      -0.04758309       2.85612319       0.00000000
Si       0.18530999       2.81908780      -2.68996462       0.00000000
