10
Lattice="16.290000149 0.0 0.0 0.0 16.290000149 0.0 0.0 0.0 29.1751946751" Properties=species:S:1:pos:R:3:initial_magmoms:R:1 pbc="T T T"
Si       1.39334887       1.43563771      -1.17631467       0.00000000
Si       1.69945427      -1.59935221       0.01566708       0.00000000
Si      -0.96171274       1.26750862       1.75325415       0.00000000
Si      -1.59402538      -0.81189361      -1.56139807       0.00000000
Si      -2.07611165       1.21541320      -2.62118702       0.00000000
Si      -0.17669763       2.71249679      -2.30113513       0.00000000
Si       0.63195427      -3.35945415      -1.05126979       0.00000000
Si      -2.41437350       2.68289786       0.53481049       0.00000000
Si      -0.30229353      -2.31803444      -2.88294686       0.00000000
Si       2.35522451      -2.02753487       2.14582390       0.00000000
