10
Lattice="16.290000149 0.0 0.0 0.0 16.290000149 0.0 0.0 0.0 29.1751946751" Properties=species:S:1:pos:R:3:initial_magmoms:R:1 pbc="T T T"
Si      -1.38950443      -1.34599384      -1.27520108       0.00000000
Si       1.32872286      -1.40991580       1.31235861       0.00000000
Si      -1.42557049       1.35886294       1.27195096       0.00000000
Si       1.29471292       1.31108437      -1.47460478       0.00000000
Si       2.62500483       2.67001247      -0.09088073       0.00000000
Si       2.66386463      -0.03370401       2.65858961       0.00000000
Si      -0.06963975       2.70819623       2.62740133       0.00000000
Si      -0.13084128      -2.74786239      -2.63993500       0.00000000
Si      -2.75040363      -0.02785590       2.65540952       0.00000000
Si       2.67948837      -2.73729018      -0.09368155       0.00000000
