10
Lattice="16.290000149 0.0 0.0 0.0 16.290000149 0.0 0.0 0.0 29.1751946751" Properties=species:S:1:pos:R:3:initial_magmoms:R:1 pbc="T T T"
H       -1.13813670       0.96570379       0.28953463       0.00000000
H        1.51307223      -1.47564595      -0.62694576       0.00000000
Si       1.47954741       1.20311425      -1.38608432       0.00000000
Si       1.29423237       0.15635142       2.02519614       0.00000000
Si      -1.31514759      -1.69916105      -1.13835775       0.00000000
H       -2.28725449      -0.81759511       2.20056823       0.00000000
Si       2.12323047      -2.78281258      -0.18324940       0.00000000
Si       0.04917625       2.41725683      -2.77041814       0.00000000
Si      -2.60518642      -0.35189658      -2.63770018       0.00000000
Si       0.74724674       2.53358372       2.76213238       0.00000000
