10
Lattice="16.290000149 0.0 0.0 0.0 16.290000149 0.0 0.0 0.0 29.1751946751" Properties=species:S:1:pos:R:3:initial_magmoms:R:1 pbc="T T T"
Si      -0.51130564      -0.91528624      -2.09086950       0.00000000
Si       2.05643333       1.02131785       0.72360318       0.00000000
Si      -1.41017644       1.95727610       0.00280082       0.00000000
Si      -0.68645572      -1.78865831       1.48317937       0.00000000
H        1.45482733       1.57951099      -2.37795342       0.00000000
Si      -1.93447010      -0.34231806       2.81918593       0.00000000
H        2.85661443      -0.44918046      -1.91943606       0.00000000
Si       0.25879923       1.21604851      -3.26875964       0.00000000
Si       1.05150322       2.26028639       2.56811734       0.00000000
Si      -3.07773489       1.17527464       1.45377078       0.00000000
