10
Lattice="16.290000149 0.0 0.0 0.0 16.290000149 0.0 0.0 0.0 29.1751946751" Properties=species:S:1:pos:R:3:initial_magmoms:R:1 pbc="T T T"
Si       1.41793048      -1.34293100       1.25345681       0.00000000
Si      -1.49727907       1.23690786       1.27997122       0.00000000
Si      -1.03992103      -1.85385903      -0.95060953       0.00000000
Si       0.87050503       1.72353903      -1.38508857       0.00000000
H       -2.05294727       0.77673164      -2.05515323       0.00000000
Si      -1.87766687      -0.61186381      -2.66307676       0.00000000
Si      -0.07771959       2.66625763       2.51528689       0.00000000
Si       2.64777662      -2.55142942      -0.34098217       0.00000000
Si      -0.83593765       3.39429032      -1.25617302       0.00000000
Si      -0.04339656      -2.77893556       2.46892751       0.00000000
