10
Lattice="16.290000149 0.0 0.0 0.0 16.290000149 0.0 0.0 0.0 29.1751946751" Properties=species:S:1:pos:R:3:initial_magmoms:R:1 pbc="T T T"
Si       1.38904017      -1.34900749       1.33041805       0.00000000
Si       1.37581269       1.34832331      -1.35043224       0.00000000
Si      -1.31416686      -1.36645408      -1.39466183       0.00000000
Si      -1.36944330       1.33991767       1.38065774       0.00000000
Si      -2.66207110      -2.71982729      -0.03673157       0.00000000
Si       0.02903367      -2.69941592       2.68405956       0.00000000
Si      -2.70133000       2.70637990       0.00863586       0.00000000
Si       0.03003224       2.70924042      -2.70614518       0.00000000
Si      -2.68264537      -0.00957852      -2.73540790       0.00000000
Si       2.70742246      -2.71182890      -0.06021760       0.00000000
