10
Lattice="16.290000149 0.0 0.0 0.0 16.290000149 0.0 0.0 0.0 29.1751946751" Properties=species:S:1:pos:R:3:initial_magmoms:R:1 pbc="T T T"
H        0.71921980       0.08030970       1.32469971       0.00000000
H       -1.39460320       0.83684989       1.62923040       0.00000000
Si       1.60981039      -0.78770296      -1.52317856       0.00000000
Si      -1.87292648      -1.46280943      -0.15740018       0.00000000
Si      -0.34055874       1.94947319      -1.37374322       0.00000000
H        1.86870737       1.71216047       0.19944163       0.00000000
H        2.51867837       1.28788741       0.24148309       0.00000000
Si      -0.79599457       0.93172285       3.02963974       0.00000000
Si       0.12329901      -1.80216272      -2.99249972       0.00000000
Si      -0.99821863      -3.24381144      -1.44177977       0.00000000
