10
Lattice="16.290000149 0.0 0.0 0.0 16.290000149 0.0 0.0 0.0 29.1751946751" Properties=species:S:1:pos:R:3:initial_magmoms:R:1 pbc="T T T"
Si       1.35953083      -1.35336670       1.35221192       0.00000000
Si      -1.36389655       1.36246955       1.34468472       0.00000000
Si      -1.34542369      -1.38896035      -1.33847041       0.00000000
Si       1.34889346       1.38755615      -1.33666154       0.00000000
Si      -2.77728213      -0.04035033      -2.59810944       0.00000000
Si      -0.00089595      -2.71669310       2.69421253       0.00000000
Si      -0.00403992       2.70616650       2.70809992       0.00000000
Si       2.79194313       0.05604249      -2.61975743       0.00000000
Si      -2.72824922       0.01487440       2.69500026       0.00000000
Si       2.70966233      -2.71407041      -0.00875256       0.00000000
