10
Lattice="16.290000149 0.0 0.0 0.0 16.290000149 0.0 0.0 0.0 29.1751946751" Properties=species:S:1:pos:R:3:initial_magmoms:R:1 pbc="T T T"
H       -0.06620256      -1.05437026      -1.08070756       0.00000000
Si       2.19819380       0.16547382       0.65874672       0.00000000
Si      -1.61891650      -0.67256524       1.56338198       0.00000000
Si      -0.44538489       2.13539096      -0.88832633       0.00000000
H       -1.88802731       2.42287688      -0.44973563       0.00000000
H        1.08291523       0.72892864      -2.99174116       0.00000000
Si      -3.14799366      -1.40248756      -0.04621351       0.00000000
H       -1.54689841      -3.29453850       0.61606341       0.00000000
Si       3.03173193      -2.07899498       0.42668722       0.00000000
Si       3.51528429      -0.08042373      -1.25607966       0.00000000
