10
Lattice="16.290000149 0.0 0.0 0.0 16.290000149 0.0 0.0 0.0 29.1751946751" Properties=species:S:1:pos:R:3:initial_magmoms:R:1 pbc="T T T"
Si      -0.73958230       1.32164029      -1.79065675       0.00000000
Si       1.99179461      -0.88382210      -0.98095757       0.00000000
Si      -0.61814035       1.06530085       2.04979083       0.00000000
Si      -1.51594741      -1.85505146      -0.07168345       0.00000000
H        0.98295490      -0.82675009       2.71206775       0.00000000
H        2.46365075       1.41341815       1.01529677       0.00000000
Si      -2.49533480       2.29043918      -0.52527020       0.00000000
Si       0.80474230      -2.04047939      -2.66818825       0.00000000
Si      -0.62996689      -0.41304924      -3.59476326       0.00000000
Si       2.53522901      -2.60094287       0.56500682       0.00000000
