10
Lattice="16.290000149 0.0 0.0 0.0 16.290000149 0.0 0.0 0.0 29.1751946751" Properties=species:S:1:pos:R:3:initial_magmoms:R:1 pbc="T T T"
Si      -0.56110906       1.03653271       2.00947071       0.00000000
Si      -1.62087130      -1.68800240      -0.07098325       0.00000000
Si       2.19372545      -0.72327601      -0.46861198       0.00000000
Si       0.04460202       2.14502161      -0.98151190       0.00000000
Si       0.68279536       2.82247059       1.16458625       0.00000000
Si       1.90865045       0.16257420      -2.70961703       0.00000000
Si       1.92813329      -2.75421549       0.72771688       0.00000000
Si      -3.44632872      -0.23441310       0.09505278       0.00000000
Si      -0.21813939      -0.80754418      -3.38899061       0.00000000
Si      -2.79326262       1.53741763       1.67999523       0.00000000
