10
Lattice="16.290000149 0.0 0.0 0.0 16.290000149 0.0 0.0 0.0 29.1751946751" Properties=species:S:1:pos:R:3:initial_magmoms:R:1 pbc="T T T"
Si       1.18571653      -0.51085440       0.79966291       0.00000000
H       -0.80699032       0.74964952      -1.65204540       0.00000000
H        0.63188911       1.65998360      -1.10451452       0.00000000
H       -0.56938438       0.12461850       2.33144816       0.00000000
Si      -1.88278193       0.58253041       1.72655885       0.00000000
Si      -1.65113813      -0.18481005      -2.46183210       0.00000000
Si       2.51875982      -1.57980421      -0.82201111       0.00000000
Si      -1.61718976       2.61346988       0.53022999       0.00000000
Si       0.49441779      -2.37216611       2.21982386       0.00000000
Si      -2.85391029      -1.41393943       0.84981507       0.00000000
