10
Lattice="16.290000149 0.0 0.0 0.0 16.290000149 0.0 0.0 0.0 29.1751946751" Properties=species:S:1:pos:R:3:initial_magmoms:R:1 pbc="T T T"
Si      -1.32271543      -1.33910317      -1.39286756       0.00000000
Si       1.35558865       1.31237128      -1.40131961       0.00000000
Si      -1.37976301       1.35757603       1.33561124       0.00000000
Si       1.35215146      -1.36932112       1.35492522       0.00000000
Si       2.69899238       2.68209965      -0.03798610       0.00000000
Si       0.09510102      -2.71914311      -2.67575338       0.00000000
Si      -2.69495735      -2.70464501      -0.03425168       0.00000000
Si      -0.01938510       2.71182890       2.68881512       0.00000000
Si       2.69905754      -0.01239669       2.71737763       0.00000000
Si      -0.01918962       2.66219327      -2.76268087       0.00000000
