10
Lattice="16.290000149 0.0 0.0 0.0 16.290000149 0.0 0.0 0.0 29.1751946751" Properties=species:S:1:pos:R:3:initial_magmoms:R:1 pbc="T T T"
Si      -1.32872286       1.40991580      -1.31235861       0.00000000
Si       1.33514177       1.37621179       1.34623101       0.00000000
Si       1.35076551      -1.32737437      -1.40604016       0.00000000
Si      -1.38464643      -1.33151203       1.36878343       0.00000000
Si      -2.71822729       0.06392196      -2.58755969       0.00000000
Si       2.64512494      -2.67996566       0.02602427       0.00000000
Si       2.67842170       0.01861947       2.70999631       0.00000000
Si       2.66595985       2.73484667      -0.03617724       0.00000000
Si      -0.05289005       2.73750194       2.66973454       0.00000000
Si      -2.75294128      -2.68078016       0.03077983       0.00000000
