10
Lattice="16.290000149 0.0 0.0 0.0 16.290000149 0.0 0.0 0.0 29.1751946751" Properties=species:S:1:pos:R:3:initial_magmoms:R:1 pbc="T T T"
Si      -1.35042472      -1.34299648      -1.31230026       0.00000000
Si       1.39501045      -1.28317960       1.35979747       0.00000000
Si       1.38386809       1.33556824      -1.34083360       0.00000000
Si      -1.18315900       1.45135756       1.41237117       0.00000000
Si       2.27351387       0.60589027       2.42898083       0.00000000
Si       0.67196251       2.38286864       2.51924888       0.00000000
Si      -2.66045024       0.08433333      -2.60969199       0.00000000
Si       0.08754246      -2.67766877      -2.59341223       0.00000000
Si       0.01927107      -2.60291396       2.71638568       0.00000000
Si      -2.72248256      -2.59675634       0.11976417       0.00000000
