10
Lattice="16.290000149 0.0 0.0 0.0 16.290000149 0.0 0.0 0.0 29.1751946751" Properties=species:S:1:pos:R:3:initial_magmoms:R:1 pbc="T T T"
Si      -1.30660462      -1.31421205      -1.44641863       0.00000000
Si      -1.32374170       1.39429369       1.36490313       0.00000000
Si       1.26104149      -1.39185019       1.43083907       0.00000000
Si       1.36687762       1.35904213      -1.37724424       0.00000000
Si      -2.66185118      -2.66905136      -0.11220780       0.00000000
Si       2.66080862       0.02518923       2.68875677       0.00000000
Si       2.69104286      -2.67390578       0.01867212       0.00000000
Si      -2.67112019       2.72795600      -0.04242073       0.00000000
Si       0.07587882       2.76529269       2.67880802       0.00000000
Si      -2.68112225       0.03229818      -2.78308017       0.00000000
