10
Lattice="16.290000149 0.0 0.0 0.0 16.290000149 0.0 0.0 0.0 29.1751946751" Properties=species:S:1:pos:R:3:initial_magmoms:R:1 pbc="T T T"
Si       1.29306763       1.43795692      -1.27906971       0.00000000
Si      -1.02762208       1.62338485       1.31743509       0.00000000
Si       1.52479288      -0.99577513       1.50552757       0.00000000
Si      -1.57441222      -1.31116582      -1.20435204       0.00000000
Si       2.48011994       2.59461421       0.40816097       0.00000000
Si      -1.55413117       0.36549873       3.24585711       0.00000000
Si       2.59719617       0.02511918      -2.61643146       0.00000000
H        0.67466665      -2.26465211      -2.83909654       0.00000000
Si       3.02355435       0.87749344       1.95412536       0.00000000
Si       2.52630209      -2.76133422       0.23909072       0.00000000
