10
Lattice="16.290000149 0.0 0.0 0.0 16.290000149 0.0 0.0 0.0 29.1751946751" Properties=species:S:1:pos:R:3:initial_magmoms:R:1 pbc="T T T"
Si       0.17528040      -1.38859545      -0.60792353       0.00000000
Si      -0.69302548       1.83133811       1.92171172       0.00000000
Si      -0.50626062       1.28563939      -2.39811348       0.00000000
Si      -2.53244342       0.94947895       0.73650737       0.00000000
Si      -2.44154522       0.25966260      -1.49403254       0.00000000
Si       1.21700962       2.61755867       0.79898021       0.00000000
Si       2.05294727      -0.77673164       2.05515323       0.00000000
Si       1.01302624      -2.63059067       1.10454370       0.00000000
Si       2.92345230       0.94680739       0.67006465       0.00000000
Si       2.06824358      -1.37438731      -1.94776517       0.00000000
