10
Lattice="16.290000149 0.0 0.0 0.0 16.290000149 0.0 0.0 0.0 29.1751946751" Properties=species:S:1:pos:R:3:initial_magmoms:R:1 pbc="T T T"
Si      -0.48208626       2.02730681      -1.05978895       0.00000000
Si       1.59402538       0.81189361       1.56139807       0.00000000
Si       1.29173185      -1.50614083      -1.32154879       0.00000000
Si      -1.86916349      -0.89192638       1.27720250       0.00000000
H       -2.79645546      -0.74163484      -1.26389861       0.00000000
H        1.03312810       1.17589366      -2.76472897       0.00000000
H       -1.08069490       1.93243385      -2.46019829       0.00000000
Si      -2.20029032       2.46747890       0.46353549       0.00000000
Si       2.22597965      -2.54756054       0.51012828       0.00000000
Si       3.29347965      -0.78745861       1.57706515       0.00000000
