10
Lattice="16.290000149 0.0 0.0 0.0 16.290000149 0.0 0.0 0.0 29.1751946751" Properties=species:S:1:pos:R:3:initial_magmoms:R:1 pbc="T T T"
Si      -0.64485595       0.84129706      -1.07962808       0.00000000
Si       2.14325903       0.25387965       1.30736965       0.00000000
Si       2.25287444      -1.48080988      -0.49673686       0.00000000
Si       0.38750652       1.22267854       2.57275619       0.00000000
Si      -2.07752888       2.06666345       0.20618110       0.00000000
Si       0.41778963      -2.66638795      -1.50115129       0.00000000
Si      -2.08494083      -0.48878145      -2.28981515       0.00000000
Si      -0.69082633      -2.31161618       2.13775404       0.00000000
Si      -1.37821546      -0.26189433       2.90351537       0.00000000
Si       0.85664224       2.20247318      -2.24155938       0.00000000
