10
Lattice="16.290000149 0.0 0.0 0.0 16.290000149 0.0 0.0 0.0 29.1751946751" Properties=species:S:1:pos:R:3:initial_magmoms:R:1 pbc="T T T"
Si      -1.36718713      -1.34993602       1.35075900       0.00000000
Si       1.30406338       1.29476179       1.47629986       0.00000000
Si      -1.37160172       1.41128416      -1.30382486       0.00000000
Si       1.36306576      -1.34812783      -1.39083113       0.00000000
Si       2.66048282       2.63482607       0.16151388       0.00000000
Si       2.71176374      -2.71049312      -0.01409745       0.00000000
Si      -0.01586646      -2.66882330       2.75898729       0.00000000
Si      -2.71059086      -2.71966439      -0.01257451       0.00000000
Si      -2.72974790       0.02287116       2.70162886       0.00000000
Si      -2.78391216       0.11363904      -2.64676287       0.00000000
