10
Lattice="16.290000149 0.0 0.0 0.0 16.290000149 0.0 0.0 0.0 29.1751946751" Properties=species:S:1:pos:R:3:initial_magmoms:R:1 pbc="T T T"
H        0.90538192      -0.90039718       0.80806537       0.00000000
Si       1.34638480       1.30878748      -1.39218194       0.00000000
Si      -1.14386752       1.42706917       1.46357364       0.00000000
Si      -1.31276224      -1.46735434      -1.27988662       0.00000000
H       -1.11034270      -1.25169103       2.22271221       0.00000000
Si      -2.57423868       2.64121175       0.07923983       0.00000000
Si      -0.50018445      -2.55885766       2.66640857       0.00000000
Si      -2.66096664      -0.13136256      -2.65549704       0.00000000
Si      -0.00832419       2.66711285      -2.69596304       0.00000000
Si       2.73342945       2.66095523      -0.09934154       0.00000000
