10
Lattice="16.290000149 0.0 0.0 0.0 16.290000149 0.0 0.0 0.0 29.1751946751" Properties=species:S:1:pos:R:3:initial_magmoms:R:1 pbc="T T T"
Si       1.36718713       1.34993602      -1.35075900       0.00000000
Si      -1.34340373      -1.36972837      -1.36333351       0.00000000
Si       1.35132067      -1.31888728       1.40822830       0.00000000
Si      -1.36256077       1.37280718       1.35086986       0.00000000
Si       2.67125051       2.64469781       0.12554086       0.00000000
Si      -2.69899238      -2.68209965       0.03798610       0.00000000
Si       0.08355141      -2.74579356      -2.65643065       0.00000000
Si      -0.00441459       2.76122019      -2.65458386       0.00000000
Si       2.77050549      -2.64966626       0.10640194       0.00000000
Si      -2.71818200      -0.01990638      -2.72469477       0.00000000
