10
Lattice="16.290000149 0.0 0.0 0.0 16.290000149 0.0 0.0 0.0 29.1751946751" Properties=species:S:1:pos:R:3:initial_magmoms:R:1 pbc="T T T"
Si      -1.49063275       1.26493480       1.28478805       0.00000000
Si       1.29564145       1.35812989      -1.44516409       0.00000000
Si      -1.42677595      -1.27197208      -1.40411459       0.00000000
Si       1.29003883      -1.34726446       1.49934243       0.00000000
H        1.46704972       1.31760037       2.92723481       0.00000000
Si      -2.88530112      -0.55747639       2.03231489       0.00000000
Si      -2.77568571      -2.29216592       0.22820837       0.00000000
Si       2.50708641      -2.63583117      -0.10351359       0.00000000
Si       2.60518642       0.35189658       2.63770018       0.00000000
Si       2.65436267       2.76915342      -0.13271796       0.00000000
