10
Lattice="16.290000149 0.0 0.0 0.0 16.290000149 0.0 0.0 0.0 29.1751946751" Properties=species:S:1:pos:R:3:initial_magmoms:R:1 pbc="T T T"
Si      -0.29476104       0.81296875       2.16762944       0.00000000
Si       1.65548756      -1.65609029       0.08475394       0.00000000
Si      -1.75909196      -1.01079451      -1.17415571       0.00000000
Si       0.92566297       1.72256978      -1.29319050       0.00000000
Si      -0.41779452      -2.31195827      -2.59738006       0.00000000
Si      -2.56521890       1.33345054       2.03654529       0.00000000
Si       2.45594558       0.46322244      -2.51055468       0.00000000
Si       3.48676050      -0.36634581      -0.55826735       0.00000000
Si       1.01294479       2.78439923       2.25851017       0.00000000
Si       2.12335265      -2.07409169       2.29950132       0.00000000
