10
Lattice="16.290000149 0.0 0.0 0.0 16.290000149 0.0 0.0 0.0 29.1751946751" Properties=species:S:1:pos:R:3:initial_magmoms:R:1 pbc="T T T"
Si       1.29332827       1.43651737       1.31343809       0.00000000
Si      -1.35505108       1.36669843      -1.33715752       0.00000000
Si      -1.30811959      -1.34697776       1.42307847       0.00000000
Si       1.42511437      -1.36209814      -1.29876297       0.00000000
Si       2.53363259       0.04699665       2.68633522       0.00000000
Si      -2.65194686      -2.69309540       0.03436838       0.00000000
Si       0.06336810      -2.70462872      -2.67644483       0.00000000
Si      -2.71057457      -0.00127062      -2.67484020       0.00000000
Si       0.02006928       2.70322778      -2.69911396       0.00000000
Si       2.76025908       0.00201996      -2.66798403       0.00000000
