10
Lattice="16.290000149 0.0 0.0 0.0 16.290000149 0.0 0.0 0.0 29.1751946751" Properties=species:S:1:pos:R:3:initial_magmoms:R:1 pbc="T T T"
Si      -0.71965963       2.19342246       0.40471830       0.00000000
Si       1.89716600       0.54516440       1.29082731       0.00000000
Si      -1.61194438      -1.49078914       0.94066663       0.00000000
Si       0.73712251       0.34577643      -2.26066913       0.00000000
H        1.45099918      -2.17140163      -1.26769138       0.00000000
H        1.72188560       1.93375985       1.89875084       0.00000000
Si       2.54842391       1.67096957      -1.65592570       0.00000000
Si       1.21562497       3.21939925      -0.49936263       0.00000000
H       -0.43653942      -2.60667044      -2.50302748       0.00000000
Si      -0.39943080      -2.90412584       2.39149567       0.00000000
