10
Lattice="16.290000149 0.0 0.0 0.0 16.290000149 0.0 0.0 0.0 29.1751946751" Properties=species:S:1:pos:R:3:initial_magmoms:R:1 pbc="T T T"
Si      -1.03304665       1.48708153       1.47051734       0.00000000
Si       0.91162099       1.83536174      -1.17091726       0.00000000
Si      -1.34079733      -1.45642375      -1.29149834       0.00000000
Si       1.51211926      -1.30113118       1.29406576       0.00000000
H       -1.91467775       2.34258347       0.58382482       0.00000000
H        2.75929797      -1.00714555      -1.31752262       0.00000000
Si       2.31524885      -2.29198673      -0.65005251       0.00000000
Si       0.43821729      -3.00377829      -1.92287873       0.00000000
Si       0.86587867       2.78497101       2.10140175       0.00000000
Si       2.47410893       2.63847503       0.41425859       0.00000000
