10
Lattice="16.290000149 0.0 0.0 0.0 16.290000149 0.0 0.0 0.0 29.1751946751" Properties=species:S:1:pos:R:3:initial_magmoms:R:1 pbc="T T T"
Si       1.31629717      -1.26302887       1.47193233       0.00000000
Si      -0.85299328      -1.93929194      -1.04072296       0.00000000
Si      -1.43180956       1.37186236       1.28486099       0.00000000
Si       1.21938796       1.43363404      -1.44166599       0.00000000
Si       2.57496032      -2.66489741       0.10719842       0.00000000
Si       2.61311150       2.76053601      -0.08115664       0.00000000
Si      -0.05962140       2.77809663       2.59731879       0.00000000
Si      -0.09477522      -2.66732462       2.73073695       0.00000000
Si       2.75695221       0.15916959      -2.63863670       0.00000000
Si      -1.50876352      -1.51110928      -3.17087978       0.00000000
