10
Lattice="16.290000149 0.0 0.0 0.0 16.290000149 0.0 0.0 0.0 29.1751946751" Properties=species:S:1:pos:R:3:initial_magmoms:R:1 pbc="T T T"
Si      -1.31154049      -1.36019872      -1.34554539       0.00000000
Si       1.31740489      -1.39168729       1.34121287       0.00000000
Si      -1.41918481       1.33077898       1.30182636       0.00000000
Si       1.30844539       1.28910916      -1.47125839       0.00000000
Si      -0.04569345       2.65725740       2.66567919       0.00000000
Si       2.69565293      -0.02764413       2.64642356       0.00000000
Si       2.68063355       2.69534342      -0.15880058       0.00000000
Si       2.64547973      -2.75007783      -0.02538242       0.00000000
Si      -2.77044033      -0.04483008       2.64896180       0.00000000
Si      -2.77050549       2.64966626      -0.10640194       0.00000000
