10
Lattice="16.290000149 0.0 0.0 0.0 16.290000149 0.0 0.0 0.0 29.1751946751" Properties=species:S:1:pos:R:3:initial_magmoms:R:1 pbc="T T T"
Si       2.19473543      -0.39289851       0.80841547       0.00000000
Si       0.03487689       2.28871244       0.67140876       0.00000000
Si       0.12582396      -0.43530138      -2.35729738       0.00000000
Si      -1.48325338      -1.35737078       1.32499147       0.00000000
H       -2.18053055      -0.25234839      -1.41283798       0.00000000
H       -0.89241508       2.43900398      -1.86969235       0.00000000
Si       0.46799541       2.03162366       2.95526167       0.00000000
Si      -0.73313146       1.64450809      -3.14619464       0.00000000
Si       2.10383723       0.29691783       3.03895538       0.00000000
Si       2.42698196      -0.37198215      -2.80857929       0.00000000
