10
Lattice="16.290000149 0.0 0.0 0.0 16.290000149 0.0 0.0 0.0 29.1751946751" Properties=species:S:1:pos:R:3:initial_magmoms:R:1 pbc="T T T"
Si      -0.09089820       0.68981635       2.23053991       0.00000000
Si       0.71965963      -2.19342246      -0.40471830       0.00000000
Si       1.93528460       1.02597679      -0.90408093       0.00000000
Si      -2.19473543       0.39289851      -0.80841547       0.00000000
H        2.44154522      -0.25966260       1.49403254       0.00000000
Si       2.61682562      -1.64825805       0.88610901       0.00000000
Si      -2.15985854       2.68161095      -0.13700671       0.00000000
Si       1.45678213      -1.84764603      -2.66538744       0.00000000
Si       1.00103680       2.06739650      -2.73575800       0.00000000
Si       0.23224653       0.02091636      -3.61699476       0.00000000
