10
Lattice="16.290000149 0.0 0.0 0.0 16.290000149 0.0 0.0 0.0 29.1751946751" Properties=species:S:1:pos:R:3:initial_magmoms:R:1 pbc="T T T"
Si       1.36365220       1.33134913       1.37940320       0.00000000
Si       1.35332597      -1.38963475      -1.33187681       0.00000000
Si      -1.34131861      -1.35145099       1.38640525       0.00000000
Si      -1.34887717       1.38531790      -1.36041015       0.00000000
Si      -2.69263928       2.68983740       0.06240574       0.00000000
Si       2.71086779       2.67936293       0.01161173       0.00000000
Si      -2.69724935      -2.70078428       0.03095488       0.00000000
Si       2.70101234      -0.05929560      -2.70998464       0.00000000
Si      -2.69553890       0.05361039      -2.75074822       0.00000000
Si       0.03335009       2.68115483       2.77079741       0.00000000
