10
Lattice="16.290000149 0.0 0.0 0.0 16.290000149 0.0 0.0 0.0 29.1751946751" Properties=species:S:1:pos:R:3:initial_magmoms:R:1 pbc="T T T"
Si       1.32375799       1.33726859       1.33826910       0.00000000
Si      -1.41793048       1.34293100      -1.25345681       0.00000000
Si       1.22984614      -1.20849842      -1.59443898       0.00000000
Si      -1.46132704      -1.43600456       1.21547070       0.00000000
Si      -2.45785151      -0.51092804      -2.20406634       0.00000000
Si      -0.71356717      -2.05458474      -2.65745120       0.00000000
Si       2.62344588       2.62629793      -0.13529121       0.00000000
Si       2.64012212      -0.09809056       2.61468386       0.00000000
Si       2.53247600      -2.73345421      -0.27449482       0.00000000
Si      -0.11929167       2.66878225       2.62136498       0.00000000
