10
Lattice="16.290000149 0.0 0.0 0.0 16.290000149 0.0 0.0 0.0 29.1751946751" Properties=species:S:1:pos:R:3:initial_magmoms:R:1 pbc="T T T"
Si      -0.11413426       1.46405399       0.59499892       0.00000000
Si      -2.14645024       0.68220729      -0.46420652       0.00000000
Si       1.79509449       0.36127441       1.66972557       0.00000000
Si       0.51306170      -0.62159383      -2.51005870       0.00000000
Si       1.57522835      -2.15031260      -1.03496086       0.00000000
Si      -1.04790150      -2.43952526       1.57954504       0.00000000
Si       0.42423233      -1.08383887       2.94447735       0.00000000
Si      -2.84006216      -1.30163617       0.55616674       0.00000000
Si      -1.75739617      -0.10111203      -2.64114285       0.00000000
Si       1.26896006       2.88862428      -0.68345811       0.00000000
