10
Lattice="16.290000149 0.0 0.0 0.0 16.290000149 0.0 0.0 0.0 29.1751946751" Properties=species:S:1:pos:R:3:initial_magmoms:R:1 pbc="T T T"
Si      -1.37578825      -1.32087466       1.36324015       0.00000000
Si      -1.37371942       1.35218404      -1.34512235       0.00000000
Si       1.29083590      -1.36796905      -1.41216695       0.00000000
Si       1.40799358       1.32546844       1.35705501       0.00000000
Si       0.04342914      -2.69296508       2.61730671       0.00000000
Si       0.04254948       2.69436602       2.70226488       0.00000000
Si      -0.00993690       2.70210377      -2.69502943       0.00000000
Si       2.67972131      -0.00832419      -2.72542999       0.00000000
Si       2.61045623      -2.80875441      -0.13589806       0.00000000
Si      -2.73287558      -2.70242957       0.01298296       0.00000000
