10
Lattice="16.290000149 0.0 0.0 0.0 16.290000149 0.0 0.0 0.0 29.1751946751" Properties=species:S:1:pos:R:3:initial_magmoms:R:1 pbc="T T T"
Si       0.52531992      -0.68528773       2.22878065       0.00000000
Si      -2.01015344       1.36695907       0.07836457       0.00000000
Si       1.15777918       2.05882796      -0.59453212       0.00000000
Si      -1.21938796      -1.58793292      -1.41196272       0.00000000
Si       2.19429560      -1.42651531      -1.04277981       0.00000000
H       -1.03845493       1.10881144      -2.39869698       0.00000000
H       -2.66203037      -1.30044700      -0.97337202       0.00000000
H       -1.56610432       2.65180025      -0.58910553       0.00000000
Si      -0.00669519       2.21716676      -2.61333889       0.00000000
H        3.39032370      -1.06305283      -0.15197359       0.00000000
