10
Lattice="16.290000149 0.0 0.0 0.0 16.290000149 0.0 0.0 0.0 29.1751946751" Properties=species:S:1:pos:R:3:initial_magmoms:R:1 pbc="T T T"
Si      -1.22984614       1.20849842       1.59443898       0.00000000
Si      -1.94341331      -0.84608632      -1.06301222       0.00000000
Si       1.30262986      -1.52495578       1.31994416       0.00000000
Si       1.48793985       1.29413202      -1.37002046       0.00000000
H       -0.86180617      -2.54958050      -1.85829652       0.00000000
Si      -2.64777662       2.55142942       0.34098217       0.00000000
Si       2.68147086      -0.26331156      -2.66186891       0.00000000
Si       2.82508676       2.52517808       0.10729470       0.00000000
Si      -3.68769765       0.69757039      -0.60962736       0.00000000
Si       2.69230371      -0.23499954       2.75307640       0.00000000
