10
Lattice="16.290000149 0.0 0.0 0.0 16.290000149 0.0 0.0 0.0 29.1751946751" Properties=species:S:1:pos:R:3:initial_magmoms:R:1 pbc="T T T"
Si       1.33714691       1.23104606       1.47731516       0.00000000
Si       1.19353101      -1.55744358      -1.29184844       0.00000000
Si      -1.48793985      -1.29413202       1.37002046       0.00000000
Si      -0.30557906       1.77925344      -1.59331573       0.00000000
Si       2.56439316      -0.11233030      -2.56660023       0.00000000
Si       2.67239586       2.64586516       0.13119531       0.00000000
Si       2.52422202      -2.81763799       0.16907230       0.00000000
Si      -0.09434011       2.54066433       2.82916823       0.00000000
Si       0.65516442       0.99044928      -3.64132687       0.00000000
Si       2.61689583      -0.13856828       2.86676922       0.00000000
