10
Lattice="16.290000149 0.0 0.0 0.0 16.290000149 0.0 0.0 0.0 29.1751946751" Properties=species:S:1:pos:R:3:initial_magmoms:R:1 pbc="T T T"
H        1.98601166      -0.08519670      -1.06063503       0.00000000
Si       1.02597679      -1.33224508       1.61931083       0.00000000
Si       0.76085704       1.87041782      -1.28172465       0.00000000
Si      -0.76760110      -2.04338504      -1.00765287       0.00000000
Si      -1.06601761       1.11267217       1.86826277       0.00000000
H       -1.22080519       1.24861222      -2.36476623       0.00000000
H       -3.02026377       0.04103451      -1.28154960       0.00000000
H       -1.87077620       1.67288528      -2.40680768       0.00000000
H        2.32127615      -0.78076342       2.53894214       0.00000000
Si      -1.01815759       3.41777235      -0.65034426       0.00000000
