10
Lattice="16.290000149 0.0 0.0 0.0 16.290000149 0.0 0.0 0.0 29.1751946751" Properties=species:S:1:pos:R:3:initial_magmoms:R:1 pbc="T T T"
Si       1.36378252       1.34991973      -1.34990708       0.00000000
Si       1.37371942      -1.35218404       1.34512235       0.00000000
Si      -1.35153244       1.36145305       1.36090613       0.00000000
Si      -1.36946773      -1.36156708      -1.35244532       0.00000000
Si      -0.00206883      -2.67305870       2.70836250       0.00000000
Si      -0.02594997       2.69849391      -2.68295090       0.00000000
Si       2.66455532      -2.72015309      -0.06704460       0.00000000
Si       2.68394042      -0.01860318      -2.73362822       0.00000000
Si       2.72552879       2.69245032       0.02777479       0.00000000
Si      -2.68881439       0.01102833       2.73062317       0.00000000
