10
Lattice="16.290000149 0.0 0.0 0.0 16.290000149 0.0 0.0 0.0 29.1751946751" Properties=species:S:1:pos:R:3:initial_magmoms:R:1 pbc="T T T"
Si      -1.22520349       1.32085837      -1.51626404       0.00000000
Si       1.34079733       1.45642375       1.29149834       0.00000000
Si      -1.61790652      -1.02824110       1.39378658       0.00000000
Si       1.77901463      -1.54735453      -0.63138039       0.00000000
H       -0.85261861      -1.74488708      -1.75646342       0.00000000
H       -0.20264760      -2.16916013      -1.71442196       0.00000000
H        1.34741107       0.61791229      -2.84881188       0.00000000
Si      -0.04786002      -2.30510018       2.51860703       0.00000000
Si       0.03401352       1.07582419      -3.45370120       0.00000000
Si       1.01815759      -3.41777235       0.65034426       0.00000000
