10
Lattice="16.290000149 0.0 0.0 0.0 16.290000149 0.0 0.0 0.0 29.1751946751" Properties=species:S:1:pos:R:3:initial_magmoms:R:1 pbc="T T T"
Si      -1.39242034      -1.34342002      -1.32954280       0.00000000
Si      -1.35912358       1.35516511       1.35442924       0.00000000
Si       1.32989932      -1.36997272       1.37272208       0.00000000
Si       1.36032904       1.34449516      -1.37243033       0.00000000
Si      -0.03582171      -2.73874324      -2.61821115       0.00000000
Si       2.70723512       2.70141959      -0.00997792       0.00000000
Si      -2.70240351       2.71275743      -0.00933606       0.00000000
Si       2.68995143      -2.72751780       0.03343477       0.00000000
Si       2.70317891      -0.02252907       2.71597722       0.00000000
Si      -0.01119123       2.71709057       2.70503652       0.00000000
