10
Lattice="16.290000149 0.0 0.0 0.0 16.290000149 0.0 0.0 0.0 29.1751946751" Properties=species:S:1:pos:R:3:initial_magmoms:R:1 pbc="T T T"
Si       0.91349434      -0.72174475      -0.98469200       0.00000000
Si      -1.08160714       1.70349419       0.79528430       0.00000000
Si      -1.91506871      -0.29302452       1.88722664       0.00000000
Si      -1.32924772       2.21496761      -1.50473984       0.00000000
Si       2.30003155      -1.91169668       0.48206174       0.00000000
Si      -0.68300713      -1.87113458      -2.31207583       0.00000000
Si       2.07114320       0.93058255      -2.16850469       0.00000000
Si       0.86180617       2.54958050       1.85829652       0.00000000
Si      -0.48697326      -1.65918539       3.22120990       0.00000000
Si      -3.22152672      -1.73982089       0.51599249       0.00000000
