10
Lattice="16.290000149 0.0 0.0 0.0 16.290000149 0.0 0.0 0.0 29.1751946751" Properties=species:S:1:pos:R:3:initial_magmoms:R:1 pbc="T T T"
Si       0.61015825      -1.30716663       0.44369636       0.00000000
Si      -1.51307223       1.47564595       0.62694576       0.00000000
H        2.01572462       0.35129385      -1.41464684       0.00000000
Si       1.11034270       1.25169103      -2.22271221       0.00000000
Si      -0.03352482       2.67876020      -0.75913857       0.00000000
Si      -2.82821982      -0.22351509      -0.51141199       0.00000000
Si      -1.61117224      -1.51208180      -2.11426801       0.00000000
Si      -0.21883986       1.63199737       2.65214190       0.00000000
Si      -0.23786658      -2.96719095      -0.95251176       0.00000000
Si       2.91920061      -1.21451725       0.08113622       0.00000000
