10
Lattice="10.86 0.0 0.0 0.0 10.86 0.0 0.0 0.0 10.86" Properties=species:S:1:pos:R:3:initial_magmoms:R:1 pbc="T T T"
Si       1.37132478       1.26694932       1.26775296       0.00000000
Si      -1.34367522       1.26694932      -1.44724704       0.00000000
Si      -1.34367522      -1.44805068       1.26775296       0.00000000
Si       0.01382478       2.62444932       2.62525296       0.00000000
Si      -2.62876074       0.00890520      -2.66144934       0.00000000
Si      -2.70117522       2.62444932      -0.08974704       0.00000000
Si      -2.70117522      -0.09055068       2.62525296       0.00000000
Si       2.72882478       2.62444932      -0.08974704       0.00000000
Si       2.72882478      -0.09055068       2.62525296       0.00000000
Si       2.59653912      -2.77948668      -0.26820942       0.00000000
