10
Lattice="10.86 0.0 0.0 0.0 10.86 0.0 0.0 0.0 10.86" Properties=species:S:1:pos:R:3:initial_magmoms:R:1 pbc="T T T"
Si      -1.26876294      -1.36466760       1.24541394       0.00000000
Si      -1.26876294       1.35033240      -1.46958606       0.00000000
Si       1.44623706      -1.36466760      -1.46958606       0.00000000
Si      -2.65363014      -0.00388788       2.42764440       0.00000000
Si       0.08873706      -2.72216760       2.60291394       0.00000000
Si      -2.62626294      -2.72216760      -0.11208606       0.00000000
Si       0.02173086       2.81044854       2.64152124       0.00000000
Si      -2.66879070       2.77747758      -0.22167432       0.00000000
Si      -2.62626294      -0.00716760      -2.82708606       0.00000000
Si       2.80373706      -2.72216760      -0.11208606       0.00000000
