10
Lattice="16.28999089631971 0.0 0.0 0.0 16.28999089631971 0.0 0.0 0.0 34.35334932831803" Properties=species:S:1:pos:R:3:initial_magmoms:R:1 pbc="T T T"
Si      -1.27968312       1.35293337      -1.36173318       0.00000000
Si       1.32398734       1.35809730       1.34895029       0.00000000
Si      -1.38828855      -1.35659210       1.34283539       0.00000000
Si       1.46487792      -1.13558405      -1.50885491       0.00000000
Si      -0.38428698      -1.97724436      -2.78817233       0.00000000
Si      -2.25382512      -0.34236693      -2.62641293       0.00000000
Si       2.68449556       0.00436572       2.70415632       0.00000000
Si       2.69027851      -2.69935793      -0.04652820       0.00000000
Si       2.69596372       2.71106325      -0.02268009       0.00000000
Si      -0.02980029      -2.71190123       2.70333184       0.00000000
