10
Lattice="16.28999089631971 0.0 0.0 0.0 16.28999089631971 0.0 0.0 0.0 34.35334932831803" Properties=species:S:1:pos:R:3:initial_magmoms:R:1 pbc="T T T"
Si       1.84395127       1.28113682       0.51093765       0.00000000
Si       0.82017202      -2.06012855      -0.84419968       0.00000000
Si      -1.50684375       1.39813160      -1.25169934       0.00000000
Si       0.96069118       0.25628568       2.59014093       0.00000000
Si      -0.66473220      -3.06636185       0.72100850       0.00000000
Si      -0.37216380      -1.81625096       2.77042740       0.00000000
Si       0.63145725      -1.31847743      -3.21664331       0.00000000
Si      -1.04528289       0.51979761      -3.41606461       0.00000000
Si      -3.55351935       1.02347626      -0.15977752       0.00000000
Si      -2.86756374      -2.83255148      -0.23903074       0.00000000
