10
Lattice="16.28999089631971 0.0 0.0 0.0 16.28999089631971 0.0 0.0 0.0 34.35334932831803" Properties=species:S:1:pos:R:3:initial_magmoms:R:1 pbc="T T T"
Si       1.31839857      -1.37731215       1.41107148       0.00000000
Si      -0.66525102      -1.95153941      -1.17286832       0.00000000
Si      -1.40069565       1.31493857       1.42541058       0.00000000
Si       1.18869759       1.50704654      -1.56359155       0.00000000
Si      -0.76944186      -1.07686674      -3.36405159       0.00000000
Si       2.54384640       2.70506201      -0.03612257       0.00000000
Si      -2.62671363      -2.65745027      -0.03029280       0.00000000
Si      -2.56316634       2.75906336       0.04297950       0.00000000
Si       2.65976604      -0.02282881       2.77971999       0.00000000
Si      -0.05450634       2.69528801       2.78054447       0.00000000
