10
Lattice="16.28999089631971 0.0 0.0 0.0 16.28999089631971 0.0 0.0 0.0 34.35334932831803" Properties=species:S:1:pos:R:3:initial_magmoms:R:1 pbc="T T T"
Si       1.35754344      -1.35912763      -1.35891620       0.00000000
Si      -1.35876519       1.35866895      -1.35895055       0.00000000
Si       1.35324288       1.36722935       1.37286367       0.00000000
Si      -1.36769211      -1.37193157       1.38282614       0.00000000
Si       2.61123813      -0.10439038       2.67983757       0.00000000
Si      -2.71516833      -2.71311985       0.00030918       0.00000000
Si       2.71450044      -2.71437418      -0.00642408       0.00000000
Si       2.71389771       0.00052563      -2.71645826       0.00000000
Si      -0.00068418      -2.71461853      -2.71645826       0.00000000
Si       2.71464705       2.71673530      -0.00192379       0.00000000
