10
Lattice="16.28999089631971 0.0 0.0 0.0 16.28999089631971 0.0 0.0 0.0 34.35334932831803" Properties=species:S:1:pos:R:3:initial_magmoms:R:1 pbc="T T T"
Si      -0.12004101      -0.79287665      -2.19030207       0.00000000
Si       1.53326367      -0.90135502       1.52154505       0.00000000
Si      -2.16512019      -0.51922583       0.73687975       0.00000000
Si       0.43450317       2.32213461       0.12167963       0.00000000
Si      -2.90743920       1.70954916       0.46397660       0.00000000
Si       1.99107783       0.05958068      -2.76723254       0.00000000
Si      -1.19736387       2.71342041       1.77971061       0.00000000
Si       1.41250590      -3.22877152       0.96069195       0.00000000
Si      -1.78683381       0.56164173      -3.29074352       0.00000000
Si       3.69295929      -0.36097825       0.84914656       0.00000000
