10
Lattice="16.28999089631971 0.0 0.0 0.0 16.28999089631971 0.0 0.0 0.0 34.35334932831803" Properties=species:S:1:pos:R:3:initial_magmoms:R:1 pbc="T T T"
Si      -1.01550231       1.98795015       0.64584333       0.00000000
Si       1.63186704      -0.39128580      -1.65803098       0.00000000
Si      -1.71007533      -1.00387125      -1.31573401       0.00000000
Si       0.98951976      -0.66862305       2.10386900       0.00000000
Si       1.19736387      -2.71342041      -1.77971061       0.00000000
Si       0.85584402       2.99033901       1.63762508       0.00000000
Si      -0.96775632      -3.23264624      -1.04283085       0.00000000
Si       0.61234110       0.86618817      -3.37260760       0.00000000
Si      -2.76179031       1.17677331       2.01918794       0.00000000
Si       2.22531174       1.33336908       2.60872610       0.00000000
