10
Lattice="16.28999089631971 0.0 0.0 0.0 16.28999089631971 0.0 0.0 0.0 34.35334932831803" Properties=species:S:1:pos:R:3:initial_magmoms:R:1 pbc="T T T"
Si       1.35915615       1.35356868      -1.39828516       0.00000000
Si      -1.35376416      -1.36317978      -1.39618960       0.00000000
Si       1.42877961      -1.33745787       1.49663885       0.00000000
Si      -1.53564201       1.38697947       1.53099222       0.00000000
Si      -2.70681156       2.70488934      -0.03878495       0.00000000
Si       2.70875007       2.70679527      -0.01154273       0.00000000
Si       2.71019988      -2.71849149      -0.02318852       0.00000000
Si      -2.72119563      -2.71503801      -0.00700809       0.00000000
Si       0.00371412       2.71054197      -2.76152988       0.00000000
Si      -2.71161711      -0.00364896      -2.76228566       0.00000000
