10
Lattice="16.28999089631971 0.0 0.0 0.0 16.28999089631971 0.0 0.0 0.0 34.35334932831803" Properties=species:S:1:pos:R:3:initial_magmoms:R:1 pbc="T T T"
Si      -0.47741103      -0.74585394      -2.15952145       0.00000000
Si       1.89400572      -1.30192938       0.53058778       0.00000000
Si       0.77340033       2.17868976      -0.47826760       0.00000000
Si      -0.82761345      -0.12877245       2.21087974       0.00000000
Si       2.63409300       0.36515664       2.00300751       0.00000000
Si       1.39414707       2.46386250       1.76236216       0.00000000
Si       1.83163131      -0.44724195      -2.89561108       0.00000000
Si       2.55555891       1.60303374      -1.92492230       0.00000000
Si      -2.75255388      -1.37653758       1.94697716       0.00000000
Si      -0.59422662       2.08344213       2.97671938       0.00000000
