10
Lattice="16.28999089631971 0.0 0.0 0.0 16.28999089631971 0.0 0.0 0.0 34.35334932831803" Properties=species:S:1:pos:R:3:initial_magmoms:R:1 pbc="T T T"
Si      -1.35830907      -1.34951247       1.37263350       0.00000000
Si       1.35400851       1.36718712       1.37122501       0.00000000
Si      -1.57955985       1.11521340      -1.37254762       0.00000000
Si       1.44265869      -1.25164215      -1.46068805       0.00000000
Si       2.71692765      -2.69146638       0.01125760       0.00000000
Si      -2.72629440      -2.70189198       0.00578167       0.00000000
Si      -2.72487717       2.70767493       0.00853681       0.00000000
Si       2.72298753       2.71753038       0.01472729       0.00000000
Si      -0.00436572      -2.70881523       2.73182452       0.00000000
Si       2.71355562       0.00656487       2.73185888       0.00000000
