10
Lattice="16.28999089631971 0.0 0.0 0.0 16.28999089631971 0.0 0.0 0.0 34.35334932831803" Properties=species:S:1:pos:R:3:initial_magmoms:R:1 pbc="T T T"
Si       1.34850249       1.33819092      -1.36615789       0.00000000
Si      -1.36018242       1.35275418       1.35764512       0.00000000
Si       1.35638685      -1.35992178       1.35647711       0.00000000
Si      -1.37117817      -1.37138994      -1.36164729       0.00000000
Si       2.49381981      -0.25427061      -2.74724232       0.00000000
Si      -2.67582309       0.06167394      -2.72201664       0.00000000
Si      -0.00130320       2.71114470       2.71463753       0.00000000
Si      -2.71851430       2.70731655      -0.00185508       0.00000000
Si       2.71521720       2.71078632      -0.00422546       0.00000000
Si       2.71345788      -0.00337203       2.71477495       0.00000000
