10
Lattice="16.28999089631971 0.0 0.0 0.0 16.28999089631971 0.0 0.0 0.0 34.35334932831803" Properties=species:S:1:pos:R:3:initial_magmoms:R:1 pbc="T T T"
Si      -0.98101638      -1.63475037      -1.55503958       0.00000000
Si       1.72296072       0.90631044      -1.58540796       0.00000000
Si      -1.81765449       1.75979241       0.16235402       0.00000000
Si       0.43854309      -1.79473446       1.75047589       0.00000000
Si       1.56239019       1.41965721       1.88933221       0.00000000
Si      -2.90149335      -2.30448114      -0.15294120       0.00000000
Si      -2.15218593      -0.31684050      -3.12481675       0.00000000
Si       2.82401811      -1.92642282       1.80798343       0.00000000
Si      -3.36935844       1.07720883      -1.65607284       0.00000000
Si      -2.01706038       2.09000700       2.63847612       0.00000000
