10
Lattice="16.28999089631971 0.0 0.0 0.0 16.28999089631971 0.0 0.0 0.0 34.35334932831803" Properties=species:S:1:pos:R:3:initial_magmoms:R:1 pbc="T T T"
Si      -1.50337152      -0.70745841      -1.61484879       0.00000000
Si      -0.40203720       2.22887925       0.55490996       0.00000000
Si      -0.27168462      -0.98280828       2.11833176       0.00000000
Si       2.12687127      -0.46384146      -1.15702145       0.00000000
Si       1.83570381      -0.14929785       2.82882813       0.00000000
Si       3.23998326      -0.19153782       0.94148842       0.00000000
Si       1.75454703       1.30851054      -2.76304143       0.00000000
Si      -0.76419648      -2.98955709      -1.72491699       0.00000000
Si      -0.49721967       0.72153297      -3.51170439       0.00000000
Si       1.55427777      -2.63163321      -2.04041832       0.00000000
