10
Lattice="16.28999089631971 0.0 0.0 0.0 16.28999089631971 0.0 0.0 0.0 34.35334932831803" Properties=species:S:1:pos:R:3:initial_magmoms:R:1 pbc="T T T"
Si      -0.48311253       1.48621815      -1.71983269       0.00000000
Si       0.37973619      -1.80564876      -1.47410304       0.00000000
Si       1.89755694       0.82487673       1.20257402       0.00000000
Si      -2.00529900      -0.90474660       0.97062007       0.00000000
Si       1.42084638      -0.92201400       2.66585575       0.00000000
Si      -1.11221604      -0.38460690       3.14099719       0.00000000
Si      -2.50220916       0.61331850      -2.59316402       0.00000000
Si      -3.68453736      -0.15229521      -0.64206446       0.00000000
Si       1.21974633       1.21394709      -3.34234228       0.00000000
Si      -0.58570695       3.66267618      -0.74570857       0.00000000
