10
Lattice="16.28999089631971 0.0 0.0 0.0 16.28999089631971 0.0 0.0 0.0 34.35334932831803" Properties=species:S:1:pos:R:3:initial_magmoms:R:1 pbc="T T T"
Si      -0.47671056      -1.74689073       1.46328173       0.00000000
Si      -1.89755694      -0.82487673      -1.20257402       0.00000000
Si       1.87159068       0.09003483      -1.55308144       0.00000000
Si      -0.27857529       2.77584858       1.38969682       0.00000000
Si       2.99851659       1.98079884      -0.67305120       0.00000000
Si       1.14885225       3.57026301      -0.35504206       0.00000000
Si      -3.00977298      -1.20948363       1.93842317       0.00000000
Si      -2.38066947       0.66134142      -2.92240671       0.00000000
Si       3.11215563      -1.93678326      -1.53549251       0.00000000
Si       0.13375719      -3.93483321       0.61942559       0.00000000
