10
Lattice="16.28999089631971 0.0 0.0 0.0 16.28999089631971 0.0 0.0 0.0 34.35334932831803" Properties=species:S:1:pos:R:3:initial_magmoms:R:1 pbc="T T T"
Si       1.79387109       1.05272496       1.18259444       0.00000000
Si      -1.13741667      -1.81868076       1.20918395       0.00000000
Si      -1.52723637       1.93170078       0.00311654       0.00000000
Si       0.03762990      -1.44171387      -2.25904080       0.00000000
Si      -2.28273399      -0.22621923       2.59026838       0.00000000
Si       0.45641322       2.50592804       2.58705634       0.00000000
Si      -3.48869898       1.22578992       1.14569205       0.00000000
Si      -1.63142721       2.80637345      -2.18806674       0.00000000
Si       0.44214318      -2.93389416       2.58173157       0.00000000
Si       3.09557241       2.47722030      -0.26235431       0.00000000
