10
Lattice="16.28999089631971 0.0 0.0 0.0 16.28999089631971 0.0 0.0 0.0 34.35334932831803" Properties=species:S:1:pos:R:3:initial_magmoms:R:1 pbc="T T T"
Si       1.35708732      -1.35703845       1.35733594       0.00000000
Si       1.35739683       1.35799342      -1.35778254       0.00000000
Si      -1.35811359       1.35824602       1.35719853       0.00000000
Si      -1.35887922      -1.35839052      -1.35699241       0.00000000
Si       0.00130320      -2.71114470      -2.71463753       0.00000000
Si      -2.71458678      -0.00078192       2.71450012       0.00000000
Si       2.71476108      -2.71451673       0.00013741       0.00000000
Si       2.71531494      -0.00154755       2.71487801       0.00000000
Si       2.71508688       2.71518855      -0.00034353       0.00000000
Si      -2.71596328      -2.71477737       0.00041224       0.00000000
