10
Lattice="16.28999089631971 0.0 0.0 0.0 16.28999089631971 0.0 0.0 0.0 34.35334932831803" Properties=species:S:1:pos:R:3:initial_magmoms:R:1 pbc="T T T"
Si       1.23178464       1.95780292      -0.54779881       0.00000000
Si      -2.07619308       0.02666673       1.20291755       0.00000000
Si      -1.58436540       0.47382723      -1.74477323       0.00000000
Si       0.39096000      -2.34365859      -0.38530738       0.00000000
Si      -3.13843140      -0.93960720      -0.67239848       0.00000000
Si      -0.43280901       3.52913795      -0.02373818       0.00000000
Si       0.30924936      -0.49326120       3.53379361       0.00000000
Si      -1.86080670      -2.93063616      -1.13397034       0.00000000
Si      -1.76562423      -1.42328988       2.93264401       0.00000000
Si       1.95704802       1.51381604      -2.93728172       0.00000000
