10
Lattice="16.28999089631971 0.0 0.0 0.0 16.28999089631971 0.0 0.0 0.0 34.35334932831803" Properties=species:S:1:pos:R:3:initial_magmoms:R:1 pbc="T T T"
Si       0.16772184       0.99645930      -2.15907486       0.00000000
Si       0.33058926      -2.31174648      -0.48630628       0.00000000
Si       2.04268455       0.94913685       0.87288474       0.00000000
Si      -2.31537915      -0.26272512       0.71942824       0.00000000
Si      -1.90715175       0.06643062      -2.76022445       0.00000000
Si       2.21446260      -0.08044002      -2.74284165       0.00000000
Si      -2.22042474       0.49609566       2.90962725       0.00000000
Si       3.43487682       0.95434965      -1.03905198       0.00000000
Si      -3.52950543       0.60369111      -1.11679366       0.00000000
Si       1.73486871      -2.35398645      -2.37364600       0.00000000
