10
Lattice="16.28999089631971 0.0 0.0 0.0 16.28999089631971 0.0 0.0 0.0 34.35334932831803" Properties=species:S:1:pos:R:3:initial_magmoms:R:1 pbc="T T T"
Si      -1.86841413       1.19288805       0.85302849       0.00000000
Si      -0.02844234       0.87408623      -2.22585781       0.00000000
Si      -0.71392554      -2.28850065       0.03469690       0.00000000
Si       1.98648405      -0.23130171       1.37248578       0.00000000
Si       0.44686728      -1.16649432       3.13979482       0.00000000
Si      -2.77283493      -2.21332230       1.10105981       0.00000000
Si      -1.86061122       0.75202852       3.14357369       0.00000000
Si      -3.74344037      -0.17627409       0.46569426       0.00000000
Si       3.38475249       1.54454028       0.69802610       0.00000000
Si      -0.80887995      -3.04732143      -2.15550211       0.00000000
