10
Lattice="16.28999089631971 0.0 0.0 0.0 16.28999089631971 0.0 0.0 0.0 34.35334932831803" Properties=species:S:1:pos:R:3:initial_magmoms:R:1 pbc="T T T"
Si      -1.38725640       1.28083383      -1.44586457       0.00000000
Si      -0.92502765      -1.99760360       0.92867461       0.00000000
Si       1.34154666      -1.42454258      -1.44943732       0.00000000
Si       0.88133787       1.95414840       1.58279710       0.00000000
Si      -2.66867667       2.66186745       0.07396280       0.00000000
Si       2.66406660       2.67369399       0.04108663       0.00000000
Si      -0.02254536       2.63660166      -2.82429349       0.00000000
Si       2.69583210      -0.08011422      -2.82504926       0.00000000
Si       2.57403177      -2.93740370      -0.07087100       0.00000000
Si      -2.73665484      -0.07719831      -2.82680128       0.00000000
