10
Lattice="16.28999089631971 0.0 0.0 0.0 16.28999089631971 0.0 0.0 0.0 34.35334932831803" Properties=species:S:1:pos:R:3:initial_magmoms:R:1 pbc="T T T"
Si      -1.75728375      -0.86240889       1.26010629       0.00000000
Si       0.91872342       1.83076794       1.16370730       0.00000000
Si      -1.12658382       0.05185107      -2.14279209       0.00000000
Si       1.62111564      -1.81420101       0.03855375       0.00000000
Si       2.19299238       0.39094371       2.63565296       0.00000000
Si      -0.53584326      -2.33895078       2.64179877       0.00000000
Si      -0.51611607      -2.13609141      -2.98664823       0.00000000
Si       1.93473072      -2.24362170      -2.30926851       0.00000000
Si      -3.04927623      -2.24547876      -0.08694910       0.00000000
Si       3.51326430      -0.97831224       1.25150764       0.00000000
