10
Lattice="16.28999089631971 0.0 0.0 0.0 16.28999089631971 0.0 0.0 0.0 34.35334932831803" Properties=species:S:1:pos:R:3:initial_magmoms:R:1 pbc="T T T"
Si       1.35651717       1.35742941       1.35712982       0.00000000
Si       1.35692442      -1.35711990      -1.35737030       0.00000000
Si      -1.35795069       1.35698958      -1.35688935       0.00000000
Si      -1.35796698      -1.35806472       1.35699241       0.00000000
Si      -0.00224802       2.71298547      -2.71467189       0.00000000
Si      -0.00014661      -2.71324611       2.71470624       0.00000000
Si       0.00027693      -2.71389771      -2.71450012       0.00000000
Si       2.71451673      -2.71461447       0.00058401       0.00000000
Si      -2.71580364      -0.00089595      -2.71340081       0.00000000
Si       2.71472850       2.71489140       0.00034353       0.00000000
