10
Lattice="16.28999089631971 0.0 0.0 0.0 16.28999089631971 0.0 0.0 0.0 34.35334932831803" Properties=species:S:1:pos:R:3:initial_magmoms:R:1 pbc="T T T"
Si       1.20989088      -1.38973248       1.41875977       0.00000000
Si       0.72392760       2.05027569       0.97068878       0.00000000
Si      -2.30904234      -0.29861199       0.73608963       0.00000000
Si      -1.83163131       0.44724195       2.89561108       0.00000000
Si       0.13434363       3.39359796      -0.87013647       0.00000000
Si       0.06237441      -0.85468743       3.42619886       0.00000000
Si      -3.28287483       0.86338629      -1.09058204       0.00000000
Si       0.99768105       2.08073799      -2.82611422       0.00000000
Si      -2.22772266      -0.35880354      -2.93814055       0.00000000
Si      -1.05823098       2.62593171       2.41734348       0.00000000
