10
Lattice="16.28999089631971 0.0 0.0 0.0 16.28999089631971 0.0 0.0 0.0 34.35334932831803" Properties=species:S:1:pos:R:3:initial_magmoms:R:1 pbc="T T T"
Si      -1.44120693      -1.38564369      -1.23301351       0.00000000
Si       1.16724692      -1.51384599       1.40576732       0.00000000
Si      -1.54596368       1.21994181       1.39884855       0.00000000
Si       2.08274492       0.11031588      -1.42760717       0.00000000
Si       2.14537997       2.20662711       0.04618467       0.00000000
Si       1.22536964      -1.81436391      -2.71888159       0.00000000
Si       2.51584715      -0.15498306       2.77540521       0.00000000
Si      -0.20646109       2.56890042       2.77719158       0.00000000
Si      -2.89330341       2.61195489      -0.01179351       0.00000000
Si       2.72035181      -2.79937134       0.03749670       0.00000000
