10
Lattice="16.28999089631971 0.0 0.0 0.0 16.28999089631971 0.0 0.0 0.0 34.35334932831803" Properties=species:S:1:pos:R:3:initial_magmoms:R:1 pbc="T T T"
Si       1.35659862       1.35576783       1.35774818       0.00000000
Si      -1.35769005      -1.35601218       1.35658017       0.00000000
Si      -1.35653346       1.35749457      -1.35716418       0.00000000
Si       1.35775521      -1.35721764      -1.35785124       0.00000000
Si      -2.71448415       0.00052128       2.70982806       0.00000000
Si      -2.71422351       0.00208512      -2.71463753       0.00000000
Si      -2.71428867      -2.71471221      -0.00017177       0.00000000
Si      -0.00104256      -2.71290402       2.71673309       0.00000000
Si       2.71557558      -2.71490769      -0.00017177       0.00000000
Si      -2.71508688       2.71542109      -0.00020612       0.00000000
