10
Lattice="16.28999089631971 0.0 0.0 0.0 16.28999089631971 0.0 0.0 0.0 34.35334932831803" Properties=species:S:1:pos:R:3:initial_magmoms:R:1 pbc="T T T"
Si       0.58889979      -2.25160380      -0.43766192       0.00000000
Si      -0.35868951       0.15586272       2.34770921       0.00000000
Si      -2.07348894       0.30406914      -1.14853617       0.00000000
Si       1.42625466       1.93130982      -0.33803715       0.00000000
Si       0.43512219       2.56486050      -2.35372104       0.00000000
Si       1.93083741      -2.56267764       1.47004935       0.00000000
Si      -2.44856619       1.24690176       2.26639478       0.00000000
Si       0.68435919       3.29445850       1.37602418       0.00000000
Si      -3.66898041       0.21211209       0.56260512       0.00000000
Si       0.44927820      -1.85660388       3.21489129       0.00000000
