10
Lattice="16.28999089631971 0.0 0.0 0.0 16.28999089631971 0.0 0.0 0.0 34.35334932831803" Properties=species:S:1:pos:R:3:initial_magmoms:R:1 pbc="T T T"
Si      -1.59418827       0.50402889      -1.68953302       0.00000000
Si      -1.42742754      -0.79441443       1.74473888       0.00000000
Si       1.28607921       2.02877289      -0.30883678       0.00000000
Si       1.84966434      -1.58946417      -0.31800913       0.00000000
Si       0.21595653      -0.05629824      -3.15570043       0.00000000
Si       2.19776535       1.16333406      -2.35883970       0.00000000
Si       0.72273843      -3.48022818      -1.19803937       0.00000000
Si      -1.14885225      -3.57026301       0.35504206       0.00000000
Si      -3.67403031      -0.51668622       0.83451203       0.00000000
Si       2.43861300       2.41427574       1.69255611       0.00000000
