10
Lattice="16.28999089631971 0.0 0.0 0.0 16.28999089631971 0.0 0.0 0.0 34.35334932831803" Properties=species:S:1:pos:R:3:initial_magmoms:R:1 pbc="T T T"
Si      -0.32848785       1.97550622       1.22466323       0.00000000
Si       2.04667560       0.37465534      -1.09192182       0.00000000
Si      -0.23105736      -2.09651227       1.07526043       0.00000000
Si      -2.63533104       1.68049432       1.36599299       0.00000000
Si       0.31685679       3.57831190      -0.52011000       0.00000000
Si      -2.49766425      -2.46808717       0.95340904       0.00000000
Si       3.55351935      -1.02347626       0.15977752       0.00000000
Si      -3.48293232      -0.50294886       1.61811236       0.00000000
Si       2.61058653       2.74721239      -0.95303115       0.00000000
Si       0.68595561      -3.85602775      -0.07925322       0.00000000
