10
Lattice="16.28999089631971 0.0 0.0 0.0 16.28999089631971 0.0 0.0 0.0 34.35334932831803" Properties=species:S:1:pos:R:3:initial_magmoms:R:1 pbc="T T T"
Si      -1.24844442       1.42376229       1.36637088       0.00000000
Si       1.34320335       1.36058967      -1.36863820       0.00000000
Si      -1.37091620      -1.35037584      -1.36389744       0.00000000
Si       1.27862979      -1.25375985       1.62092934       0.00000000
Si      -2.27359108      -0.19593612       2.77437804       0.00000000
Si       1.95738522       0.72863541       2.96874940       0.00000000
Si      -0.64744442      -2.19849840       3.02529505       0.00000000
Si       2.69230857      -2.70365130       0.02865071       0.00000000
Si       0.21960875       2.62741410       2.78365345       0.00000000
Si       2.70669264       2.71627605      -0.00312616       0.00000000
