10
Lattice="16.28999089631971 0.0 0.0 0.0 16.28999089631971 0.0 0.0 0.0 34.35334932831803" Properties=species:S:1:pos:R:3:initial_magmoms:R:1 pbc="T T T"
Si      -1.45020096       1.61572007      -1.00050750       0.00000000
Si       1.49160267      -0.49670916      -1.80502904       0.00000000
Si      -0.46320615      -2.04966744       1.21930411       0.00000000
Si       1.12624403       0.98405903       1.94876354       0.00000000
Si       0.29550060       3.25148042      -0.76350362       0.00000000
Si       3.37443182       0.43159345       0.87285039       0.00000000
Si       0.22095756       3.18790055       1.65140078       0.00000000
Si       2.46220811      -2.53375737      -1.16966349       0.00000000
Si       3.36662891       0.87245298      -1.41769481       0.00000000
Si      -1.67032773       0.96207078      -3.25292047       0.00000000
