10
Lattice="16.28999089631971 0.0 0.0 0.0 16.28999089631971 0.0 0.0 0.0 34.35334932831803" Properties=species:S:1:pos:R:3:initial_magmoms:R:1 pbc="T T T"
Si       0.22012677       0.65364928       2.25241296       0.00000000
Si       1.98177624      -1.19393712      -0.58764872       0.00000000
Si      -1.82402388      -1.54889622      -0.17860316       0.00000000
Si      -0.62786547       1.71562696      -1.60378701       0.00000000
Si      -0.88611084      -2.58824709      -2.05508721       0.00000000
Si      -2.87269263       1.96693279      -0.85886857       0.00000000
Si      -3.55498299      -0.25017205      -1.13139384       0.00000000
Si       3.16193040      -1.45877994       1.44789142       0.00000000
Si       1.67032773      -0.96207078       3.25292047       0.00000000
Si      -2.04139764       1.33810621       2.89938995       0.00000000
