10
Lattice="16.28999089631971 0.0 0.0 0.0 16.28999089631971 0.0 0.0 0.0 34.35334932831803" Properties=species:S:1:pos:R:3:initial_magmoms:R:1 pbc="T T T"
Si      -1.35764118      -1.35651717      -1.35761077       0.00000000
Si      -1.35738054       1.35741312       1.35757642       0.00000000
Si       1.35726026      -1.35765747       1.35771383       0.00000000
Si       1.35925389       1.35759231      -1.35754206       0.00000000
Si       2.71238993      -0.00219915      -2.71188926       0.00000000
Si      -0.00166158      -2.71411600       2.71439706       0.00000000
Si      -2.71410948      -0.00099369       2.71487801       0.00000000
Si       2.71441966      -2.71471221       0.00003435       0.00000000
Si       2.71483668       2.71476108       0.00030918       0.00000000
Si      -0.00050499       2.71590138       2.71412223       0.00000000
