10
Lattice="16.28999089631971 0.0 0.0 0.0 16.28999089631971 0.0 0.0 0.0 34.35334932831803" Properties=species:S:1:pos:R:3:initial_magmoms:R:1 pbc="T T T"
Si      -1.35871632      -1.35638685      -1.35682064       0.00000000
Si       1.35672894       1.35840681      -1.35730159       0.00000000
Si       1.35910728      -1.35793440       1.35905361       0.00000000
Si      -1.35927018       1.35878148       1.35980939       0.00000000
Si       2.71244790      -2.71312231      -0.00048095       0.00000000
Si       2.71410948       0.00099369      -2.71487801       0.00000000
Si      -0.00087966      -2.71456723      -2.71460318       0.00000000
Si       2.71360449       2.71689507      -0.00075577       0.00000000
Si      -0.00112401       2.71596654      -2.71477495       0.00000000
Si      -2.71630863       0.00110772      -2.71477495       0.00000000
