10
Lattice="16.28999089631971 0.0 0.0 0.0 16.28999089631971 0.0 0.0 0.0 34.35334932831803" Properties=species:S:1:pos:R:3:initial_magmoms:R:1 pbc="T T T"
Si      -1.84850775      -1.44363609      -0.05311031       0.00000000
Si       1.34193762      -0.31107384       1.90771126       0.00000000
Si       0.90479547      -0.09718614      -2.17927464       0.00000000
Si      -0.58889979       2.25160380       0.43766192       0.00000000
Si      -0.13962159       0.39499992       3.65255320       0.00000000
Si      -2.66238873       2.55567294      -0.71087425       0.00000000
Si      -0.94758930       2.40746652       2.78537112       0.00000000
Si      -3.09099492      -1.33898913       1.95048120       0.00000000
Si      -2.84281677      -0.90818379      -2.56045962       0.00000000
Si       3.18839283       0.47889342      -2.25876833       0.00000000
