10
Lattice="16.28999089631971 0.0 0.0 0.0 16.28999089631971 0.0 0.0 0.0 34.35334932831803" Properties=species:S:1:pos:R:3:initial_magmoms:R:1 pbc="T T T"
Si       0.48332430      -2.22270534       0.59980981       0.00000000
Si      -1.34193762       0.31107384      -1.90771126       0.00000000
Si      -1.48155921       0.70607376       1.74484194       0.00000000
Si       2.23518348       0.91237032      -0.26634167       0.00000000
Si       2.94220762       0.25738200       1.91021906       0.00000000
Si      -1.93083741       2.56267764      -1.47004935       0.00000000
Si       1.00729215      -3.15110502      -1.52590792       0.00000000
Si       1.91601351      -1.80840177       2.52452599       0.00000000
Si      -2.28952692       2.71854036       0.87765986       0.00000000
Si      -3.19044537      -1.13256225      -1.96082157       0.00000000
