10
Lattice="16.28999089631971 0.0 0.0 0.0 16.28999089631971 0.0 0.0 0.0 34.35334932831803" Properties=species:S:1:pos:R:3:initial_magmoms:R:1 pbc="T T T"
Si      -1.47321873       1.21391451       1.44742078       0.00000000
Si       1.24798643      -1.46971638       1.45599195       0.00000000
Si      -0.85423131      -1.90488744      -1.22073214       0.00000000
Si       0.89049285       1.95679782      -1.31298716       0.00000000
Si      -2.78633934       2.52235730      -0.02403362       0.00000000
Si      -1.69315002      -1.00778085      -3.23498942       0.00000000
Si      -0.11350872       2.57745008       2.81802056       0.00000000
Si       2.59924936      -0.13981707       2.81984129       0.00000000
Si       2.64194056      -2.78545968       0.09967973       0.00000000
Si      -2.72205900      -2.77821063       0.07828446       0.00000000
