10
Lattice="16.28999089631971 0.0 0.0 0.0 16.28999089631971 0.0 0.0 0.0 34.35334932831803" Properties=species:S:1:pos:R:3:initial_magmoms:R:1 pbc="T T T"
Si       1.34470692       1.33099074       1.37018410       0.00000000
Si       1.35215145      -1.36063854      -1.35609922       0.00000000
Si      -1.36231641       1.35250983      -1.35575569       0.00000000
Si      -1.34130231      -1.38272778       1.37080246       0.00000000
Si      -0.12256596       2.56816737       2.75675476       0.00000000
Si       2.71108916      -0.00314397      -2.71381305       0.00000000
Si      -0.00307881       2.71179837      -2.71388176       0.00000000
Si       2.71154761       2.71430496       0.00669891       0.00000000
Si       2.71039536      -2.71749780       0.00879446       0.00000000
Si      -0.00333945      -2.71816569      -2.71367564       0.00000000
