10
Lattice="16.28999089631971 0.0 0.0 0.0 16.28999089631971 0.0 0.0 0.0 34.35334932831803" Properties=species:S:1:pos:R:3:initial_magmoms:R:1 pbc="T T T"
Si       1.46727288      -1.23717663      -1.38657066       0.00000000
Si      -1.23248511       1.51286112      -1.37856633       0.00000000
Si       1.81701918       1.06453262       1.20882633       0.00000000
Si      -1.95857928      -0.85056606       1.35871008       0.00000000
Si      -3.49905942       0.93980009       0.99954561       0.00000000
Si       0.12256596      -2.56816737      -2.75675476       0.00000000
Si      -2.66038506      -2.67662619      -0.05682047       0.00000000
Si      -2.59711470       0.14870273      -2.75589593       0.00000000
Si       2.77303041      -2.61342099       0.08488717       0.00000000
Si       3.49375932      -0.77374242       1.40824764       0.00000000
