10
Lattice="16.28999089631971 0.0 0.0 0.0 16.28999089631971 0.0 0.0 0.0 34.35334932831803" Properties=species:S:1:pos:R:3:initial_magmoms:R:1 pbc="T T T"
Si      -2.12318973      -0.93530664       0.49035998       0.00000000
Si       1.19663638      -1.49389074      -1.41769481       0.00000000
Si      -0.31146480       1.98713565      -1.28505646       0.00000000
Si       0.89050004      -0.06312375       2.22853737       0.00000000
Si      -1.28376603      -3.04393311       1.17017879       0.00000000
Si       0.17044227      -3.55967451      -0.80338788       0.00000000
Si       0.87920944       1.47338163      -3.29301085       0.00000000
Si      -1.06023465       0.34008633       3.55110770       0.00000000
Si       0.48961224      -0.83890242      -3.59425554       0.00000000
Si      -3.22713045      -1.04519898      -1.58307193       0.00000000
