10
Lattice="16.28999089631971 0.0 0.0 0.0 16.28999089631971 0.0 0.0 0.0 34.35334932831803" Properties=species:S:1:pos:R:3:initial_magmoms:R:1 pbc="T T T"
Si      -1.74417030       1.49203368      -0.21096404       0.00000000
Si       1.94712741       0.34065648      -1.18972586       0.00000000
Si       0.83891871      -0.89710659       2.01425728       0.00000000
Si      -1.01046870      -2.52615546      -0.27651026       0.00000000
Si       1.36150191      -1.47857814      -2.51105947       0.00000000
Si       1.19443167      -3.18746430      -0.91290642       0.00000000
Si       1.69315002       1.00778085       3.23498942       0.00000000
Si      -2.89670409       1.10653083      -2.21235693       0.00000000
Si      -2.55226833       2.20227768       1.83790522       0.00000000
Si      -1.02890898      -1.77042978       3.31327388       0.00000000
