10
Lattice="16.28999089631971 0.0 0.0 0.0 16.28999089631971 0.0 0.0 0.0 34.35334932831803" Properties=species:S:1:pos:R:3:initial_magmoms:R:1 pbc="T T T"
Si      -1.35581737      -1.35748547      -1.35754206       0.00000000
Si      -1.35715940       1.35705474       1.35767948       0.00000000
Si       1.35754996      -1.35736933       1.35747336       0.00000000
Si       1.35847849       1.35878148      -1.35671758       0.00000000
Si      -0.00202973       2.71251306      -2.71192362       0.00000000
Si      -2.71441966       2.71471221      -0.00003435       0.00000000
Si       0.00098392       2.71427238       2.71522154       0.00000000
Si       2.71466986       0.00063368       2.71511848       0.00000000
Si      -2.71474546      -2.71527326      -0.00003435       0.00000000
Si      -2.71608124       0.00059621       2.71436271       0.00000000
