10
Lattice="16.28999089631971 0.0 0.0 0.0 16.28999089631971 0.0 0.0 0.0 34.35334932831803" Properties=species:S:1:pos:R:3:initial_magmoms:R:1 pbc="T T T"
Si       1.34474765       1.35294966      -1.38835704       0.00000000
Si      -1.37177994      -1.36306575      -1.38262002       0.00000000
Si      -1.43171085       1.30917843       1.45022745       0.00000000
Si       1.48977751      -1.33172379       1.44349419       0.00000000
Si       2.69222386       2.69413794      -0.00584007       0.00000000
Si      -2.73746838       2.68542279      -0.02123038       0.00000000
Si       2.70695003      -2.72577312      -0.02524973       0.00000000
Si       2.70095530      -0.00728163      -2.74720453       0.00000000
Si      -0.01244230       2.70770751      -2.74796030       0.00000000
Si      -2.73921141      -2.72468169      -0.01130226       0.00000000
