10
Lattice="16.28999089631971 0.0 0.0 0.0 16.28999089631971 0.0 0.0 0.0 34.35334932831803" Properties=species:S:1:pos:R:3:initial_magmoms:R:1 pbc="T T T"
Si       1.26991138       1.48291128      -1.31803569       0.00000000
Si      -1.46805317      -1.20365181      -1.41728257       0.00000000
Si      -1.61650461       0.84846465       1.52673240       0.00000000
Si       1.73777647      -1.89877869       0.18509595       0.00000000
Si      -2.43120009      -1.31680215       1.97325749       0.00000000
Si       2.82161533       2.16549486       0.50039117       0.00000000
Si       2.48708389       0.08886195      -2.78677961       0.00000000
Si       1.28830279      -2.16266040       2.79481830       0.00000000
Si      -2.49319983      -2.82335022      -0.00927541       0.00000000
Si      -0.21960875      -2.62741410      -2.78365345       0.00000000
