10
Lattice="16.28999089631971 0.0 0.0 0.0 16.28999089631971 0.0 0.0 0.0 34.35334932831803" Properties=species:S:1:pos:R:3:initial_magmoms:R:1 pbc="T T T"
Si       1.34161671       1.35553651      -1.38378804       0.00000000
Si      -1.37138029      -1.35737469      -1.38004352       0.00000000
Si      -1.33786447       1.37440033       1.45263219       0.00000000
Si       1.29624906      -1.45327392       1.48447776       0.00000000
Si      -2.38847468      -0.43897966       2.57883867       0.00000000
Si      -0.71173454      -2.27725470       2.77825997       0.00000000
Si       2.69181336       2.71817872       0.01119920       0.00000000
Si       2.69147127      -2.73197376      -0.00116801       0.00000000
Si       2.70039819      -0.00137325      -2.74294471       0.00000000
Si      -2.74048529       2.70561913       0.00127107       0.00000000
