10
Lattice="16.28999089631971 0.0 0.0 0.0 16.28999089631971 0.0 0.0 0.0 34.35334932831803" Properties=species:S:1:pos:R:3:initial_magmoms:R:1 pbc="T T T"
Si       1.35718995      -1.35475785       1.35960327       0.00000000
Si      -1.35864383      -1.35641943      -1.35726724       0.00000000
Si       1.35647319       1.35902794      -1.35730159       0.00000000
Si      -1.35818539       1.36102950       1.36324472       0.00000000
Si      -0.00137650      -2.71399545      -2.71408788       0.00000000
Si       2.71339761      -2.71498914       0.00075577       0.00000000
Si       2.71458678       0.00078192      -2.71450012       0.00000000
Si       2.71359309       2.71703095       0.00034353       0.00000000
Si      -2.71582223       0.00112401      -2.71480930       0.00000000
Si      -0.00107677       2.71639727      -2.71477495       0.00000000
