10
Lattice="16.290000149 0.0 0.0 0.0 16.290000149 0.0 0.0 0.0 29.1751946751" Properties=species:S:1:pos:R:3:initial_magmoms:R:1 pbc="T T T"
H        0.43947162       1.28891368      -0.66023466       0.00000000
Si      -0.83098549       0.98187976       1.93749550       0.00000000
Si      -1.88566526      -0.70413526      -1.27183426       0.00000000
Si       2.01409562      -1.36935370      -0.07244201       0.00000000
H        0.94846897      -0.25827795      -2.47408568       0.00000000
H       -0.67528567      -2.67318902      -1.05529597       0.00000000
Si       3.17589517       0.70659505      -0.65311591       0.00000000
Si      -2.33308640       2.29830725       0.64868128       0.00000000
Si       0.76870882      -2.96008851      -1.49379914       0.00000000
Si       1.98858548       0.84784564      -2.67603638       0.00000000
