10
Lattice="16.290000149 0.0 0.0 0.0 16.290000149 0.0 0.0 0.0 29.1751946751" Properties=species:S:1:pos:R:3:initial_magmoms:R:1 pbc="T T T"
Si       1.34486983       1.35455098      -1.36560334       0.00000000
Si      -1.35679411      -1.36257218      -1.35028636       0.00000000
Si       1.38984652      -1.34862794       1.33266454       0.00000000
Si      -1.38424276       1.35497452       1.33429835       0.00000000
Si       0.02606400      -2.69856396       2.68239657       0.00000000
Si      -0.02867040       2.72295986       2.67177680       0.00000000
Si      -2.70292153      -0.00230178      -2.70562003       0.00000000
Si       2.70453098      -0.00223662      -2.70602848       0.00000000
Si       2.71783991       2.70236930      -0.02272748       0.00000000
Si       2.71019990      -2.71675989      -0.05111494       0.00000000
