10
Lattice="16.290000149 0.0 0.0 0.0 16.290000149 0.0 0.0 0.0 29.1751946751" Properties=species:S:1:pos:R:3:initial_magmoms:R:1 pbc="T T T"
Si      -1.36642150      -1.31256676       1.39125125       0.00000000
Si       1.33939639       1.37432215       1.35991709       0.00000000
Si      -1.37513665       1.35066907      -1.35735551       0.00000000
Si       1.41877756      -1.37458279      -1.30476139       0.00000000
Si      -2.52120332      -0.16164567      -2.77922613       0.00000000
Si      -2.68830614      -2.65880495       0.00392698       0.00000000
Si       2.67473657      -0.00443088      -2.73146633       0.00000000
Si       2.70112637       2.72393237       0.00328513       0.00000000
Si      -0.01379763      -2.67955841       2.74670162       0.00000000
Si       2.79270876      -2.63816552       0.11293426       0.00000000
