10
Lattice="16.290000149 0.0 0.0 0.0 16.290000149 0.0 0.0 0.0 29.1751946751" Properties=species:S:1:pos:R:3:initial_magmoms:R:1 pbc="T T T"
Si      -1.38074367       1.45051211      -1.15603791       0.00000000
Si       1.52679655      -1.26447868      -1.21462170       0.00000000
Si       0.84677050       1.66323997       1.39454513       0.00000000
Si      -0.92100403      -1.73141525       1.27755260       0.00000000
H        0.23284926       2.96881995       0.95534175       0.00000000
Si       2.55963143      -2.09096813       0.73778232       0.00000000
Si       0.11427435      -2.66002670      -2.51236354       0.00000000
Si      -2.61191002       0.08872072      -2.60058933       0.00000000
Si       0.09293445       1.08335669       3.54834553       0.00000000
Si       0.73063909      -3.38600685       1.37289714       0.00000000
