10
Lattice="16.290000149 0.0 0.0 0.0 16.290000149 0.0 0.0 0.0 29.1751946751" Properties=species:S:1:pos:R:3:initial_magmoms:R:1 pbc="T T T"
Si       1.35557236       1.36798534       1.33747845       0.00000000
Si      -1.32835829       1.36050823      -1.37441425       0.00000000
Si       1.38424276      -1.35497452      -1.33429835       0.00000000
Si      -1.34735569      -1.35388309       1.37610641       0.00000000
Si       2.71044425       0.00122175       2.67446092       0.00000000
Si      -2.69838965      -0.00847080      -2.69963911       0.00000000
Si       0.05856255      -2.69228090       2.70906270       0.00000000
Si       0.02744865      -2.71754669      -2.68458471       0.00000000
Si      -2.69389361       2.71189406      -0.02482809       0.00000000
Si      -0.02251278       2.71366967       2.69491273       0.00000000
