10
Lattice="16.290000149 0.0 0.0 0.0 16.290000149 0.0 0.0 0.0 29.1751946751" Properties=species:S:1:pos:R:3:initial_magmoms:R:1 pbc="T T T"
Si      -1.50164479      -1.36106209       1.16161038       0.00000000
Si       1.39255066      -1.35317773      -1.31335056       0.00000000
Si       1.33869592       1.28805031       1.43048897       0.00000000
Si      -1.34197021       1.34697124      -1.38305010       0.00000000
H       -0.85830382      -2.20336913       2.24106340       0.00000000
Si      -0.00713502      -2.72427446      -2.62719711       0.00000000
Si       2.69079851       2.67237452       0.07623478       0.00000000
Si      -2.93356839      -0.13510926       2.44759461       0.00000000
Si       2.74541889      -2.66351276       0.11273295       0.00000000
Si       2.73271269      -0.00477297      -2.68604347       0.00000000
