10
Lattice="16.290000149 0.0 0.0 0.0 16.290000149 0.0 0.0 0.0 29.1751946751" Properties=species:S:1:pos:R:3:initial_magmoms:R:1 pbc="T T T"
Si       1.34692237       1.35764119       1.36172304       0.00000000
Si      -1.35262387       1.36699165      -1.35545037       0.00000000
Si      -1.36005211      -1.34408791       1.37231363       0.00000000
Si       1.37792224      -1.34752510      -1.35212440       0.00000000
Si      -0.05103657      -2.74993122      -2.59566455       0.00000000
Si       2.67838553      -2.69692355       0.06628604       0.00000000
Si      -2.67450851       0.02075346      -2.74277464       0.00000000
Si      -0.02270826       2.72166806       2.69774273       0.00000000
Si       2.69299766      -0.00133578       2.73033142       0.00000000
Si       0.01379763       2.67955841      -2.74670162       0.00000000
