10
Lattice="16.290000149 0.0 0.0 0.0 16.290000149 0.0 0.0 0.0 29.1751946751" Properties=species:S:1:pos:R:3:initial_magmoms:R:1 pbc="T T T"
Si       1.35487189      -1.36676359       1.33698247       0.00000000
Si      -1.35557236      -1.36798534      -1.33747845       0.00000000
Si       1.37516923       1.33628500      -1.36204396       0.00000000
Si      -1.37808514       1.34568433       1.35743428       0.00000000
Si       2.64813500       0.06991668       2.65036221       0.00000000
Si       0.02867040      -2.72295986      -2.67177680       0.00000000
Si      -2.68393065      -0.00747711      -2.71189270       0.00000000
Si      -2.70711295       2.70485678      -0.00811070       0.00000000
Si      -2.70292805      -2.72186843       0.03862796       0.00000000
Si       0.03202614       2.71937117      -2.70564920       0.00000000
