10
Lattice="16.290000149 0.0 0.0 0.0 16.290000149 0.0 0.0 0.0 29.1751946751" Properties=species:S:1:pos:R:3:initial_magmoms:R:1 pbc="T T T"
Si       1.41509602      -1.33015996      -1.30681532       0.00000000
Si       1.37086867       1.32807484       1.36306510       0.00000000
Si      -1.35544204      -1.37500633       1.34325514       0.00000000
Si      -1.34917039       1.32123304      -1.40525243       0.00000000
Si       0.10414197      -2.69125463      -2.65223526       0.00000000
Si       0.00004887       2.70721883       2.68300925       0.00000000
Si       2.74725966       2.64673406      -0.00134206       0.00000000
Si      -2.72507267      -0.01097946       2.67927483       0.00000000
Si      -2.71800281       2.69461037      -0.06123873       0.00000000
Si       2.72619668      -0.04287528       2.70068942       0.00000000
