10
Lattice="16.290000149 0.0 0.0 0.0 16.290000149 0.0 0.0 0.0 29.1751946751" Properties=species:S:1:pos:R:3:initial_magmoms:R:1 pbc="T T T"
Si       0.65228419      -0.42295356       2.13219908       0.00000000
Si      -1.07136073      -1.75910825      -1.06390265       0.00000000
Si      -1.70036651       1.59803272      -0.01522945       0.00000000
Si       1.78142555       0.58482730      -1.44595182       0.00000000
Si      -0.30954258       3.03399624      -1.19195258       0.00000000
H        3.05703030       1.12148506      -0.50735664       0.00000000
H       -0.55954522      -3.04034934       1.33292712       0.00000000
Si      -1.99699112      -0.71498440      -2.89870147       0.00000000
Si      -1.25494903      -1.21458241       3.25422455       0.00000000
Si       0.76144348       1.92590156      -3.06027370       0.00000000
