10
Lattice="16.290000149 0.0 0.0 0.0 16.290000149 0.0 0.0 0.0 29.1751946751" Properties=species:S:1:pos:R:3:initial_magmoms:R:1 pbc="T T T"
Si      -1.31471541       0.26264367       1.90983742       0.00000000
Si       2.21081366      -0.08076582       0.80360156       0.00000000
Si      -1.28951315      -0.15933249      -2.02510861       0.00000000
Si      -0.55413694       2.38756016       0.74134170       0.00000000
Si      -0.51759846      -1.99637210       1.69388263       0.00000000
H        2.06081534       0.71237800       2.08240870       0.00000000
H       -2.42573741       0.80751160      -1.73621584       0.00000000
H        0.22652874      -1.62741988      -2.65786023       0.00000000
H        0.76295845      -1.95170492       2.51463920       0.00000000
H        0.62662744       2.76711717       1.65187035       0.00000000
