10
Lattice="16.290000149 0.0 0.0 0.0 16.290000149 0.0 0.0 0.0 29.1751946751" Properties=species:S:1:pos:R:3:initial_magmoms:R:1 pbc="T T T"
Si       1.36484137       1.35545833       1.34710626       0.00000000
Si       1.36963063      -1.36402687      -1.33601969       0.00000000
Si      -1.34848621      -1.34759026       1.37820702       0.00000000
Si      -1.34822557       1.36078516      -1.36545746       0.00000000
Si      -0.01014867       2.71977842       2.67933318       0.00000000
Si       2.72507267       0.01097946      -2.67927483       0.00000000
Si       2.71549415      -0.02120958       2.68913604       0.00000000
Si      -2.69653259      -2.70953201       0.02777479       0.00000000
Si       0.02270826      -2.72166806      -2.69774273       0.00000000
Si      -2.70865235       0.00643455      -2.71889474       0.00000000
