10
Lattice="16.290000149 0.0 0.0 0.0 16.290000149 0.0 0.0 0.0 29.1751946751" Properties=species:S:1:pos:R:3:initial_magmoms:R:1 pbc="T T T"
Si      -2.24536475       0.50700996      -0.27675590       0.00000000
Si       0.93202747      -0.81119640      -1.99683785       0.00000000
Si       0.28669586      -1.82224552       1.57239712       0.00000000
Si       1.33359389       1.97293079       0.49043502       0.00000000
Si       2.96895027       0.79384429       1.70152565       0.00000000
Si       1.63260825      -0.61036839       3.05496381       0.00000000
Si       2.77195530      -1.98661439      -1.06209379       0.00000000
Si      -0.93853207      -1.70982285      -3.11792388       0.00000000
Si      -2.97592239       1.14043033       1.90264486       0.00000000
Si       1.45738161      -3.41290164       0.28463320       0.00000000
