10
Lattice="16.290000149 0.0 0.0 0.0 16.290000149 0.0 0.0 0.0 29.1751946751" Properties=species:S:1:pos:R:3:initial_magmoms:R:1 pbc="T T T"
Si       1.37495746       1.34234488      -1.34255493       0.00000000
Si       1.36159966      -1.39455433       1.30503563       0.00000000
Si      -1.35509995      -1.35340579      -1.35976830       0.00000000
Si      -1.35247726       1.36966321       1.35072399       0.00000000
Si       0.00565263       2.69029352      -2.68408873       0.00000000
Si       2.78164785      -0.08462655       2.61882382       0.00000000
Si      -2.74155815       0.00992061       2.66387032       0.00000000
Si       0.01242927      -2.75261907       2.65797694       0.00000000
Si       0.01571985      -2.73254978      -2.67971246       0.00000000
Si       0.02435355       2.73556344       2.68718131       0.00000000
