10
Lattice="16.290000149 0.0 0.0 0.0 16.290000149 0.0 0.0 0.0 29.1751946751" Properties=species:S:1:pos:R:3:initial_magmoms:R:1 pbc="T T T"
Si       0.61335109       0.51473142      -2.18212951       0.00000000
Si      -2.30049011      -0.05758515       0.45107768       0.00000000
Si       0.77159215       2.04511178       0.87945707       0.00000000
Si       1.22007214      -1.87221135       0.95166568       0.00000000
Si       1.69722254       1.00098793       2.71425589       0.00000000
Si       3.03020067      -0.54581274       1.55673004       0.00000000
Si       1.30114747      -1.53533251      -2.94771579       0.00000000
Si      -0.24120603      -0.02756268       3.61579858       0.00000000
Si      -2.44439597       0.35189658       2.81021310       0.00000000
Si      -3.16643394       2.01947132      -0.34143730       0.00000000
