10
Lattice="16.290000149 0.0 0.0 0.0 16.290000149 0.0 0.0 0.0 29.1751946751" Properties=species:S:1:pos:R:3:initial_magmoms:R:1 pbc="T T T"
Si       1.38808720       1.34465806       1.27837242       0.00000000
Si       1.25768575      -1.40356270      -1.36236781       0.00000000
Si      -1.31662297       1.26317548      -1.47186523       0.00000000
Si      -1.41087691      -1.40491477       1.25792061       0.00000000
Si      -2.17287425      -0.67359151      -2.51345177       0.00000000
Si      -0.46714833      -2.34189929      -2.63995921       0.00000000
Si      -0.03679911       2.70474275       2.54845617       0.00000000
Si       2.58129713      -0.07936488      -2.72506734       0.00000000
Si       2.71944888      -0.06400341       2.58810526       0.00000000
Si       2.68112225       2.66452274      -0.18740978       0.00000000
