10
Lattice="16.290000149 0.0 0.0 0.0 16.290000149 0.0 0.0 0.0 29.1751946751" Properties=species:S:1:pos:R:3:initial_magmoms:R:1 pbc="T T T"
Si       1.72327025      -1.63238833      -0.10135463       0.00000000
Si      -2.05959359      -1.02385909      -0.71044517       0.00000000
Si       1.38864106       1.75773989      -0.90399341       0.00000000
Si      -0.97228495       1.19231398       1.89452044       0.00000000
H        0.79786792      -1.46601856      -2.63699997       0.00000000
H       -0.63631999       0.58872061      -3.06753832       0.00000000
H       -1.70856038       2.97696495      -0.61127868       0.00000000
Si       2.15565572      -1.87761800       2.18484514       0.00000000
Si      -2.52088241       2.47404377       0.72097741       0.00000000
Si      -3.51730588       0.88128901      -0.69959199       0.00000000
