10
Lattice="16.290000149 0.0 0.0 0.0 16.290000149 0.0 0.0 0.0 29.1751946751" Properties=species:S:1:pos:R:3:initial_magmoms:R:1 pbc="T T T"
H       -1.13622425       0.96684409       0.28889278       0.00000000
H        1.51604190      -1.46808739      -0.63275162       0.00000000
Si       1.47919392       1.20192508      -1.38835999       0.00000000
Si       1.28951315       0.15933249       2.02510861       0.00000000
Si      -1.31528833      -1.70118101      -1.13800764       0.00000000
H       -2.28879715      -0.85266748       2.21833593       0.00000000
Si       2.12996313      -2.77366737      -0.19354824       0.00000000
Si       0.05071077       2.41693103      -2.77266463       0.00000000
Si      -2.60291722      -0.35406315      -2.64058852       0.00000000
Si       0.73537622       2.54689265       2.76645031       0.00000000
