10
Lattice="16.290000149 0.0 0.0 0.0 16.290000149 0.0 0.0 0.0 29.1751946751" Properties=species:S:1:pos:R:3:initial_magmoms:R:1 pbc="T T T"
Si      -1.38367261       1.34359921       1.33572794       0.00000000
Si      -1.36523233      -1.33978735      -1.37216776       0.00000000
Si       1.34410420       1.37161801      -1.36324015       0.00000000
Si       1.33973848      -1.36580248       1.37555208       0.00000000
Si      -2.68045436       2.64709244      -0.12510323       0.00000000
Si       2.66005114      -2.70198974      -0.03168426       0.00000000
Si       0.00426798       2.70223409       2.66626269       0.00000000
Si      -2.73323397      -0.04746906       2.68093781       0.00000000
Si       2.73121075       0.00961110       2.68753141       0.00000000
Si      -0.01852173      -2.68755680      -2.73922985       0.00000000
