10
Lattice="16.290000149 0.0 0.0 0.0 16.290000149 0.0 0.0 0.0 29.1751946751" Properties=species:S:1:pos:R:3:initial_magmoms:R:1 pbc="T T T"
Si       1.27184095      -1.36122499      -1.42269919       0.00000000
Si       1.35827732       1.41157738       1.31267953       0.00000000
Si      -1.39138023       1.35539317      -1.35084069       0.00000000
Si      -1.29535068      -1.35941680       1.44475564       0.00000000
Si       2.61972280      -2.69700500      -0.04705959       0.00000000
Si      -0.07684237       2.65605194       2.68219235       0.00000000
Si      -2.72238727      -2.63046035       0.04052435       0.00000000
Si       2.61384211       0.00716760      -2.78585181       0.00000000
Si      -0.03549835       2.70252731      -2.74416046       0.00000000
Si      -0.10730467      -2.72297126      -2.75658909       0.00000000
