10
Lattice="16.290000149 0.0 0.0 0.0 16.290000149 0.0 0.0 0.0 29.1751946751" Properties=species:S:1:pos:R:3:initial_magmoms:R:1 pbc="T T T"
H        1.28055691       0.04466718       0.82075658       0.00000000
Si      -1.36061086      -1.38665694       1.33552371       0.00000000
Si       0.60421240      -1.51651105      -1.75873909       0.00000000
Si      -0.79711695       2.25901577       0.21595479       0.00000000
Si       0.51759846       1.99637210      -1.69388263       0.00000000
Si       2.72841212       1.91560628      -0.89028107       0.00000000
Si       0.47931696      -2.56207493       2.27026777       0.00000000
H       -3.06071184       0.98437213      -1.50065531       0.00000000
Si       3.59435595      -0.16145019      -0.09776608       0.00000000
Si       2.67419900      -2.23847082      -0.91382545       0.00000000
