10
Lattice="16.290000149 0.0 0.0 0.0 16.290000149 0.0 0.0 0.0 29.1751946751" Properties=species:S:1:pos:R:3:initial_magmoms:R:1 pbc="T T T"
Si      -0.34627653       0.88280398       2.13501157       0.00000000
Si      -1.85580569      -0.93164140      -1.10562318       0.00000000
Si       1.05551056       1.76249657      -1.18165373       0.00000000
Si       1.60176313      -1.77676661      -0.08924692       0.00000000
Si       2.13825800       0.34230177      -2.67962493       0.00000000
Si      -0.67214170      -2.38267316      -2.51814023       0.00000000
Si       1.27461106       2.56997558       2.20593647       0.00000000
Si       2.22928652      -2.18067716       2.05903936       0.00000000
Si       3.43337817      -0.95151520      -1.25292874       0.00000000
Si      -3.15827265      -2.16847595       0.39514884       0.00000000
