10
Lattice="16.290000149 0.0 0.0 0.0 16.290000149 0.0 0.0 0.0 29.1751946751" Properties=species:S:1:pos:R:3:initial_magmoms:R:1 pbc="T T T"
Si       1.91798462      -1.06036335       0.77859842       0.00000000
Si      -1.25459065      -1.31869995      -1.47045899       0.00000000
Si       1.16190055       1.43986497      -1.50348531       0.00000000
Si      -0.97414201       0.40419563       2.15155391       0.00000000
H       -1.88004521       1.96917594       0.65798817       0.00000000
Si       0.04888629       2.55460597       2.54340595       0.00000000
Si      -2.60146415      -2.60875393      -0.10007092       0.00000000
Si       3.66505455      -0.73795655      -0.71362526       0.00000000
Si       2.68304447       0.12288687      -2.70051437       0.00000000
Si       2.60152931       2.76997606      -0.29329823       0.00000000
