10
Lattice="16.290000149 0.0 0.0 0.0 16.290000149 0.0 0.0 0.0 29.1751946751" Properties=species:S:1:pos:R:3:initial_magmoms:R:1 pbc="T T T"
Si       1.35990550      -1.35297411       1.35288295       0.00000000
Si      -1.36265851       1.36253634       1.34570585       0.00000000
Si       1.34978941       1.38770439      -1.33549454       0.00000000
Si      -1.34661286      -1.38789987      -1.33949154       0.00000000
Si      -2.78068674      -0.04156719      -2.60128953       0.00000000
Si       0.00026064      -2.71649599       2.69535036       0.00000000
Si       2.79222006       0.05564827      -2.61826950       0.00000000
Si      -0.00285075       2.70603781       2.70935445       0.00000000
Si      -0.02736720       2.72765464      -2.69444593       0.00000000
Si      -2.72702747       0.01494770       2.69596304       0.00000000
