10
Lattice="16.290000149 0.0 0.0 0.0 16.290000149 0.0 0.0 0.0 29.1751946751" Properties=species:S:1:pos:R:3:initial_magmoms:R:1 pbc="T T T"
Si       1.35573852      -1.24297588       1.45477965       0.00000000
Si      -1.17068575       1.59065612       1.28776392       0.00000000
Si       1.31457369       1.42628725      -1.34672699       0.00000000
Si      -1.46378358      -1.37487601      -1.34751472       0.00000000
Si      -0.52535413       2.60170525      -2.28147105       0.00000000
Si      -1.45738161       3.41290164      -0.28463320       0.00000000
Si      -0.01024804      -2.54208710      -2.72513823       0.00000000
Si       2.83952947      -2.42002613       0.13009219       0.00000000
Si      -2.64790369       0.27953640       2.65747804       0.00000000
Si       0.02283695      -2.69645114       2.70331227       0.00000000
