10
Lattice="16.290000149 0.0 0.0 0.0 16.290000149 0.0 0.0 0.0 29.1751946751" Properties=species:S:1:pos:R:3:initial_magmoms:R:1 pbc="T T T"
Si       1.49221288      -1.26397369      -1.28236651       0.00000000
Si      -1.34154667       1.41654583      -1.36884178       0.00000000
Si      -1.39167100      -1.82306279       0.75172807       0.00000000
Si       1.06965028       1.69088573       1.38310845       0.00000000
H        2.95890585       0.05693355       1.64711479       0.00000000
Si      -2.46650150       2.53167779       0.38534597       0.00000000
Si       0.06517629      -2.53501724      -2.68659780       0.00000000
Si      -0.60377257       3.37344726       1.63807048       0.00000000
Si       2.77984177      -2.61109154       0.22021437       0.00000000
Si      -3.14879187      -0.85248829       2.01338018       0.00000000
