10
Lattice="16.290000149 0.0 0.0 0.0 16.290000149 0.0 0.0 0.0 29.1751946751" Properties=species:S:1:pos:R:3:initial_magmoms:R:1 pbc="T T T"
Si      -1.32188464      -1.34623819      -1.38732427       0.00000000
Si       1.36642150       1.31256676      -1.39125125       0.00000000
Si      -1.37873674       1.36111096       1.33429835       0.00000000
Si       1.35262387      -1.36699165       1.35545037       0.00000000
Si       2.70581789       2.68688891      -0.03133416       0.00000000
Si      -2.69489382      -2.70376535      -0.02990457       0.00000000
Si       0.09868482      -2.71950149      -2.68111286       0.00000000
Si      -0.01830996       2.71546157       2.68773563       0.00000000
Si      -0.00871515       2.66323583      -2.74860676       0.00000000
Si       2.69954624      -0.00935046       2.71717341       0.00000000
