10
Lattice="16.290000149 0.0 0.0 0.0 16.290000149 0.0 0.0 0.0 29.1751946751" Properties=species:S:1:pos:R:3:initial_magmoms:R:1 pbc="T T T"
Si      -1.33136168       1.40866147      -1.30973284       0.00000000
Si       1.33533090       1.37658646       1.34497647       0.00000000
Si       1.35011244      -1.33046947      -1.40245161       0.00000000
Si      -1.38474401      -1.33213105       1.36720797       0.00000000
Si      -2.71944888       0.06400341      -2.58810526       0.00000000
Si       2.64549977      -2.68183901       0.02637438       0.00000000
Si       2.67838928       0.01844028       2.70842085       0.00000000
Si       2.66626952       2.73440685      -0.03824868       0.00000000
Si      -0.05302020       2.73756711       2.66812990       0.00000000
Si      -2.75316918      -2.68086161       0.02876674       0.00000000
