10
Lattice="16.290000149 0.0 0.0 0.0 16.290000149 0.0 0.0 0.0 29.1751946751" Properties=species:S:1:pos:R:3:initial_magmoms:R:1 pbc="T T T"
Si      -1.34687350      -1.29005398       1.37038807       0.00000000
Si       1.25459065       1.31869995       1.47045899       0.00000000
Si       1.36456444      -1.37015191      -1.34357607       0.00000000
Si      -1.42591258       1.36456281      -1.29567040       0.00000000
Si       2.41649120       2.75856492      -0.03302632       0.00000000
Si       2.70832655       0.00822645      -2.65683910       0.00000000
Si      -0.04427622      -2.69560406      -2.69969746       0.00000000
Si      -0.11763009       2.71140536      -2.71854464       0.00000000
Si      -2.75939571      -2.68560200       0.07264623       0.00000000
Si      -2.76951180       0.01790271      -2.68394286       0.00000000
