10
Lattice="16.290000149 0.0 0.0 0.0 16.290000149 0.0 0.0 0.0 29.1751946751" Properties=species:S:1:pos:R:3:initial_magmoms:R:1 pbc="T T T"
Si       2.23145309      -0.50740092       0.32900867       0.00000000
Si      -1.04741443       0.67970351       2.06875470       0.00000000
Si      -0.05621679       2.06677748      -1.28750134       0.00000000
Si      -0.65070406      -1.77266153      -1.58672214       0.00000000
Si      -2.36356499       1.98154657      -0.92995933       0.00000000
H       -0.64482337      -2.89966890       1.53435266       0.00000000
Si       2.79225264      -1.54308655      -1.68022864       0.00000000
Si      -3.11740104       1.40166329       1.22384107       0.00000000
Si       3.47438010       1.27897678      -0.51397940       0.00000000
Si       1.17136504      -3.23025816      -1.75115353       0.00000000
