10
Lattice="16.290000149 0.0 0.0 0.0 16.290000149 0.0 0.0 0.0 29.1751946751" Properties=species:S:1:pos:R:3:initial_magmoms:R:1 pbc="T T T"
Si      -1.48379095       1.17705025       1.32468746       0.00000000
Si      -1.33582888      -1.19353573      -1.46529498       0.00000000
Si       1.24673887      -1.52603092       1.31629580       0.00000000
Si       1.28391265       1.35689185      -1.51816043       0.00000000
Si       2.14679396      -0.51093585      -2.63883801       0.00000000
Si       0.36686709      -2.09085410      -2.77663245       0.00000000
H       -1.93228724      -2.72987822      -1.33283959       0.00000000
Si      -0.05888835       2.53498466       2.60599549       0.00000000
Si      -2.83952947       2.42002613      -0.13009219       0.00000000
Si       2.65403198      -0.21760182       2.65222650       0.00000000
