10
Lattice="16.290000149 0.0 0.0 0.0 16.290000149 0.0 0.0 0.0 29.1751946751" Properties=species:S:1:pos:R:3:initial_magmoms:R:1 pbc="T T T"
Si       1.35196250       1.35286822       1.36119788       0.00000000
Si       1.38835110      -1.36098064      -1.32315343       0.00000000
Si      -1.33825609      -1.35726652       1.38071609       0.00000000
Si      -1.34576578       1.38077299      -1.35428336       0.00000000
Si      -2.68949531       2.71195922       0.03226777       0.00000000
Si       0.05302020      -2.73756711      -2.66812990       0.00000000
Si      -2.70322778       0.03117906      -2.70777899       0.00000000
Si       2.69091254      -0.00628794       2.72426298       0.00000000
Si       2.71067231       2.70484049      -0.00137123       0.00000000
Si      -2.69702129      -2.72261288       0.04945195       0.00000000
