10
Lattice="16.290000149 0.0 0.0 0.0 16.290000149 0.0 0.0 0.0 29.1751946751" Properties=species:S:1:pos:R:3:initial_magmoms:R:1 pbc="T T T"
Si       1.34804638       1.36194175       1.35043224       0.00000000
Si      -1.34305838       1.35814618      -1.36344437       0.00000000
Si       1.35918874      -1.35622396      -1.35320388       0.00000000
Si      -1.36791041      -1.36490653       1.34418874       0.00000000
Si      -0.03288951      -2.70027929      -2.68204647       0.00000000
Si       2.69118947      -0.02114442       2.69403748       0.00000000
Si      -2.67838928      -0.01844028      -2.70842085       0.00000000
Si      -0.04049694       2.71283888       2.68397203       0.00000000
Si       2.69653259       2.70953201      -0.02777479       0.00000000
Si       2.68956047      -2.72583830       0.01870130       0.00000000
