10
Lattice="16.290000149 0.0 0.0 0.0 16.290000149 0.0 0.0 0.0 29.1751946751" Properties=species:S:1:pos:R:3:initial_magmoms:R:1 pbc="T T T"
Si       1.36930483      -1.34794864       1.34153380       0.00000000
Si       1.37963269       1.34366437      -1.33529031       0.00000000
Si      -1.35066907       1.37657017       1.34879842       0.00000000
Si      -1.38046348      -1.34418565      -1.35676325       0.00000000
Si      -0.05444118       2.68999705      -2.59708830       0.00000000
Si      -0.00565263      -2.69029352       2.68408873       0.00000000
Si      -2.72751617       0.02142135       2.68155049       0.00000000
Si       2.72468171      -2.70049106      -0.02439046       0.00000000
Si       2.72650619       0.01506825       2.69955159       0.00000000
Si      -0.04391784      -2.78493843      -2.64581088       0.00000000
