10
Lattice="16.290000149 0.0 0.0 0.0 16.290000149 0.0 0.0 0.0 29.1751946751" Properties=species:S:1:pos:R:3:initial_magmoms:R:1 pbc="T T T"
H       -1.13103100       0.06138072       1.00307237       0.00000000
Si       0.22175577      -2.13553757      -0.90959504       0.00000000
Si       2.06161355       0.69385627       0.90262217       0.00000000
Si      -0.22812516       1.51317811      -1.83593665       0.00000000
H       -0.43478010       0.99036685       2.62019506       0.00000000
H       -2.04431357       1.84376738       1.44956955       0.00000000
Si       2.34743789      -1.55030302      -1.91190886       0.00000000
H        2.43481745      -2.37501686       0.66043888       0.00000000
Si       3.31969026       0.44642745      -1.03539848       0.00000000
Si       1.72414991       2.81538444       1.83529480       0.00000000
