10
Lattice="16.290000149 0.0 0.0 0.0 16.290000149 0.0 0.0 0.0 29.1751946751" Properties=species:S:1:pos:R:3:initial_magmoms:R:1 pbc="T T T"
Si      -0.11728800       2.30523539       0.23518124       0.00000000
Si       1.60106266       0.07371225      -1.79112355       0.00000000
Si       0.28645965      -0.88568731       2.24132598       0.00000000
Si      -2.12711564      -0.96995548      -0.67995709       0.00000000
H        1.09530703      -2.74986606       0.05870049       0.00000000
H        2.53390952      -1.83888038       0.60739838       0.00000000
Si      -1.86435794       1.98282859       1.72740493       0.00000000
Si      -1.90801514      -0.16247646       2.70763312       0.00000000
Si       3.18008496      -1.01217916      -0.46939971       0.00000000
Si      -1.04436820      -2.39015027      -2.17792828       0.00000000
