10
Lattice="16.290000149 0.0 0.0 0.0 16.290000149 0.0 0.0 0.0 29.1751946751" Properties=species:S:1:pos:R:3:initial_magmoms:R:1 pbc="T T T"
Si       1.32902781      -1.35917245       1.36554499       0.00000000
Si      -1.34235303      -1.36094806      -1.35419584       0.00000000
Si      -1.32031266       1.33618726       1.40723634       0.00000000
Si       1.35059577       1.36541152      -1.36399870       0.00000000
Si       2.63963977       0.07051941       2.68852336       0.00000000
Si      -2.66005114       2.70198974       0.03168426       0.00000000
Si      -2.67857287       0.01443294      -2.70754559       0.00000000
Si      -2.69621494      -2.70892928       0.01963491       0.00000000
Si       2.70711295      -2.70485678       0.00811070       0.00000000
Si       0.02318230      -2.71233389      -2.70378199       0.00000000
