10
Lattice="16.290000149 0.0 0.0 0.0 16.290000149 0.0 0.0 0.0 29.1751946751" Properties=species:S:1:pos:R:3:initial_magmoms:R:1 pbc="T T T"
Si      -0.79804711       1.85824919      -1.15107813       0.00000000
Si       1.71841583      -0.45931284      -1.52933453       0.00000000
Si       1.38492694       1.01129950       1.63121431       0.00000000
Si      -1.38864106      -1.75773989       0.90399341       0.00000000
H       -2.02496105      -1.16901928      -2.16354491       0.00000000
H        1.12192489      -0.56439964      -2.93094006       0.00000000
H       -3.09720144       1.21922506       0.29271473       0.00000000
Si       2.20156094      -2.48833010      -0.47190877       0.00000000
Si       0.33462918      -3.39012822       0.80263878       0.00000000
Si       2.65093688       2.49422708       0.30689387       0.00000000
