10
Lattice="16.290000149 0.0 0.0 0.0 16.290000149 0.0 0.0 0.0 29.1751946751" Properties=species:S:1:pos:R:3:initial_magmoms:R:1 pbc="T T T"
Si      -1.36028017      -1.36273996       1.34337184       0.00000000
Si       1.35509995       1.35340579       1.35976830       0.00000000
Si       1.37081980      -1.37914399      -1.31994416       0.00000000
Si      -1.38318391       1.33841899      -1.35054894       0.00000000
Si      -0.01971090       2.69951366      -2.68108369       0.00000000
Si       2.71669961      -0.04114854       2.66480393       0.00000000
Si      -0.00004887      -2.70721883      -2.68300925       0.00000000
Si      -2.73527021       0.00158013       2.67559875       0.00000000
Si      -0.00962739      -2.73940788       2.68540162       0.00000000
Si       2.73005742       2.69575067       0.01721336       0.00000000
