10
Lattice="16.290000149 0.0 0.0 0.0 16.290000149 0.0 0.0 0.0 29.1751946751" Properties=species:S:1:pos:R:3:initial_magmoms:R:1 pbc="T T T"
H       -1.04547592       1.11430443       0.01916810       0.00000000
Si      -0.83582362      -1.92845094       1.02005233       0.00000000
Si       0.27872190      -0.73952528      -2.20628657       0.00000000
Si       1.87055954       0.89862646       1.12108603       0.00000000
Si       2.54949091      -1.21519329      -2.09425382       0.00000000
Si      -2.39578661      -2.71344976      -0.57308835       0.00000000
Si       0.93853207       1.70982285       3.11792388       0.00000000
H        0.17045856       3.26965552      -1.71509299       0.00000000
Si      -2.88082137       0.53066142       2.39793843       0.00000000
Si       0.93213010      -3.07795480       2.05504236       0.00000000
