10
Lattice="16.290000149 0.0 0.0 0.0 16.290000149 0.0 0.0 0.0 29.1751946751" Properties=species:S:1:pos:R:3:initial_magmoms:R:1 pbc="T T T"
H        0.53525682       0.24808041      -1.38585092       0.00000000
Si       1.66905713      -0.94394035       1.32017756       0.00000000
Si      -0.86288131       1.86782771       1.12067758       0.00000000
Si      -1.77992687      -1.57991824      -0.13779444       0.00000000
H        1.78450436       2.00077040      -0.95446649       0.00000000
H       -1.07427664       1.10148094      -2.55647643       0.00000000
H       -0.16099407      -0.68090572      -3.00297361       0.00000000
Si      -2.14679396       0.51093585       2.63883801       0.00000000
Si       2.63596637      -2.39849075      -0.19439432       0.00000000
Si       0.40304718      -2.42686793       2.64449800       0.00000000
