10
Lattice="16.290000149 0.0 0.0 0.0 16.290000149 0.0 0.0 0.0 29.1751946751" Properties=species:S:1:pos:R:3:initial_magmoms:R:1 pbc="T T T"
Si      -1.40442281       1.31852890       1.31364232       0.00000000
Si       1.37005743      -1.23900112       1.44484317       0.00000000
Si       1.33148271       1.39766572      -1.34229236       0.00000000
Si      -1.39147226      -1.37541358      -1.31197933       0.00000000
Si       2.56848016      -2.64108143      -0.03069230       0.00000000
Si      -0.11582842       2.72748359       2.63346977       0.00000000
Si       2.63038216       0.04005711      -2.76014847       0.00000000
Si       0.00230341      -2.66636351       2.74486067       0.00000000
Si      -2.73121075      -0.00961110      -2.68753141       0.00000000
Si      -2.72694277       2.69262299      -0.02126872       0.00000000
