10
Lattice="16.290000149 0.0 0.0 0.0 16.290000149 0.0 0.0 0.0 29.1751946751" Properties=species:S:1:pos:R:3:initial_magmoms:R:1 pbc="T T T"
Si      -0.65228419       0.42295356      -2.13219908       0.00000000
Si      -1.90723322      -0.79162885       1.12202547       0.00000000
Si       0.85625128       1.93676699       1.04158654       0.00000000
Si       1.70572592      -1.66830779      -0.12650744       0.00000000
H       -1.21182940      -2.61739577      -0.79927196       0.00000000
Si       2.17287425       0.67359151       2.51345177       0.00000000
Si      -0.65723635      -2.16108029       2.53570953       0.00000000
Si       3.43056000      -0.72997120       1.15108397       0.00000000
Si       0.84093868      -3.39677943       1.25592795       0.00000000
Si      -2.35265069       2.02098629      -2.14742853       0.00000000
