10
Lattice="16.290000149 0.0 0.0 0.0 16.290000149 0.0 0.0 0.0 29.1751946751" Properties=species:S:1:pos:R:3:initial_magmoms:R:1 pbc="T T T"
H       -1.18583056       0.51282549      -0.79878766       0.00000000
Si       1.33146316      -1.06947109      -1.62272433       0.00000000
H       -1.75772360       0.63545662       1.53149349       0.00000000
Si       1.29973024       1.66988792       1.17829859       0.00000000
Si      -0.69214582      -1.86093704       1.41989837       0.00000000
H       -0.55553788       2.17100090      -1.90400238       0.00000000
H        1.51609402      -1.08175375       2.54795728       0.00000000
Si      -3.07053471       1.09348255       0.92584563       0.00000000
H       -1.99414037       1.26001522      -2.45270027       0.00000000
Si       2.55621053       0.02436984       2.34600658       0.00000000
