10
Lattice="16.290000149 0.0 0.0 0.0 16.290000149 0.0 0.0 0.0 29.1751946751" Properties=species:S:1:pos:R:3:initial_magmoms:R:1 pbc="T T T"
Si      -1.34947379      -1.41056740       1.30509398       0.00000000
Si       1.33859777      -1.36300060      -1.37286796       0.00000000
Si      -1.43879186       1.34951248      -1.28685949       0.00000000
Si       1.37953780       1.35959599       1.35714253       0.00000000
Si      -2.58705768      -0.04448799       2.72303762       0.00000000
Si      -0.06007141       2.67644702      -2.67626978       0.00000000
Si       0.00034422       2.75532858       2.65520529       0.00000000
Si       2.70895168      -2.70552467      -0.01592966       0.00000000
Si       2.69873785      -0.01278765      -2.72650947       0.00000000
Si       2.71641250       2.71008587      -0.01315801       0.00000000
