10
Lattice="16.290000149 0.0 0.0 0.0 16.290000149 0.0 0.0 0.0 29.1751946751" Properties=species:S:1:pos:R:3:initial_magmoms:R:1 pbc="T T T"
Si       1.28859440       1.40895469       1.31982746       0.00000000
Si      -1.32251995       1.37409409      -1.33491103       0.00000000
Si       1.40442281      -1.31852890      -1.31364232       0.00000000
Si      -1.31927824      -1.32699970       1.44110874       0.00000000
Si      -2.56010384       2.74017351       0.08303260       0.00000000
Si       0.01295055      -2.69394248      -2.62562164       0.00000000
Si       2.77448025      -2.55753002       0.13120085       0.00000000
Si      -2.71046054       0.01545921      -2.66544579       0.00000000
Si       2.73590553       0.07913682      -2.65593467       0.00000000
Si       2.70267392       0.18363717       2.69981416       0.00000000
