10
Lattice="16.290000149 0.0 0.0 0.0 16.290000149 0.0 0.0 0.0 29.1751946751" Properties=species:S:1:pos:R:3:initial_magmoms:R:1 pbc="T T T"
Si      -1.23264802       1.85041370       0.66119744       0.00000000
Si      -1.53398044      -0.71988769      -1.61090837       0.00000000
Si       1.61991019       0.67217428      -1.56449064       0.00000000
Si       0.07449417      -1.45909531       1.93344015       0.00000000
H        0.33585093      -2.56162370      -0.88855973       0.00000000
H        0.04295673       2.38707146       1.59979262       0.00000000
H        1.55178541      -0.40627260      -2.62282083       0.00000000
Si      -2.75245617      -2.04032252      -0.11427924       0.00000000
H       -0.27383490       3.09402489      -2.01445967       0.00000000
Si       2.31985892      -1.96610528       2.21019605       0.00000000
