10
Lattice="16.290000149 0.0 0.0 0.0 16.290000149 0.0 0.0 0.0 29.1751946751" Properties=species:S:1:pos:R:3:initial_magmoms:R:1 pbc="T T T"
Si      -1.34371324      -1.32711373      -1.40741139       0.00000000
Si      -1.38562741       1.35003376       1.35486687       0.00000000
Si       1.35588187       1.34713414      -1.39331977       0.00000000
Si       1.39138023      -1.35539317       1.35084069       0.00000000
Si      -2.68387526      -2.67551849      -0.03471848       0.00000000
Si       2.66322117      -2.71661816      -0.07185850       0.00000000
Si      -2.71709057       2.66546756      -0.08793404       0.00000000
Si       0.02365308       2.71407692       2.67341061       0.00000000
Si       2.74965754       0.05618421       2.66352022       0.00000000
Si      -2.73773001      -0.03429045       2.70912105       0.00000000
