10
Lattice="16.290000149 0.0 0.0 0.0 16.290000149 0.0 0.0 0.0 29.1751946751" Properties=species:S:1:pos:R:3:initial_magmoms:R:1 pbc="T T T"
Si       1.35536711      -1.38754963      -1.32887177       0.00000000
Si       1.36520301       1.32954094       1.37849877       0.00000000
Si      -1.34030863      -1.35466012       1.38453804       0.00000000
Si      -1.34768800       1.38334681      -1.36434880       0.00000000
Si      -2.69050529       2.68684004       0.05980915       0.00000000
Si       2.71235018       2.67695201       0.00997792       0.00000000
Si      -2.69777063      -2.70425405       0.03104241       0.00000000
Si       2.70313004      -0.06411744      -2.71142881       0.00000000
Si       0.03460480       2.67849956       2.76936783       0.00000000
Si       0.02015073      -2.74447407      -2.70482355       0.00000000
