10
Lattice="16.290000149 0.0 0.0 0.0 16.290000149 0.0 0.0 0.0 29.1751946751" Properties=species:S:1:pos:R:3:initial_magmoms:R:1 pbc="T T T"
Si      -1.36978066       1.12977667      -1.51305477       0.00000000
Si       1.34652310      -1.50304573      -1.19939225       0.00000000
Si      -1.43728642      -1.22499172       1.39571214       0.00000000
Si       1.27443985       1.45332865       1.37441133       0.00000000
H       -2.28415466       1.87657544      -0.54907716       0.00000000
H        2.15884514      -1.00012456      -2.53164834       0.00000000
Si      -0.03343050      -2.58046634       2.74166015       0.00000000
Si      -2.81667477      -2.54619218       0.01344976       0.00000000
Si       2.64954881       0.09989028       2.73505488       0.00000000
Si      -0.21218067       2.77490379      -2.67641566       0.00000000
