10
Lattice="16.290000149 0.0 0.0 0.0 16.290000149 0.0 0.0 0.0 29.1751946751" Properties=species:S:1:pos:R:3:initial_magmoms:R:1 pbc="T T T"
Si      -1.37334475       1.35899326       1.32114034       0.00000000
Si      -1.37389861      -1.36422235      -1.33164341       0.00000000
Si       1.35435061       1.37482714      -1.34237988       0.00000000
Si       1.35972631      -1.32543586       1.39124833       0.00000000
Si      -0.01365102       2.66714543       2.71072569       0.00000000
Si       2.68341914      -2.69630453       0.01773852       0.00000000
Si      -0.01347183      -2.71577108      -2.68467224       0.00000000
Si      -2.71495658       0.02630835       2.69424170       0.00000000
Si       2.70106121       0.02705769      -2.70944198       0.00000000
Si      -2.73009000       2.69371442      -0.05616225       0.00000000
