10
Lattice="16.290000149 0.0 0.0 0.0 16.290000149 0.0 0.0 0.0 29.1751946751" Properties=species:S:1:pos:R:3:initial_magmoms:R:1 pbc="T T T"
Si      -1.38541564      -1.27827631      -1.37552378       0.00000000
Si       1.20290248      -1.39742137       1.44089868       0.00000000
Si      -1.42056946       1.37326330       1.29378860       0.00000000
Si       1.87447403       0.80049061      -1.19903982       0.00000000
Si       2.51794532      -2.72171368       0.04097364       0.00000000
Si       2.63186129       0.00498474       2.68443884       0.00000000
Si       2.68651424       2.65748546      -0.01489977       0.00000000
Si       3.50728590      -0.93545326      -1.11271567       0.00000000
Si      -0.09868482       2.71950149       2.68111286       0.00000000
Si      -2.72175766      -2.68248899      -0.02208562       0.00000000
