10
Lattice="16.290000149 0.0 0.0 0.0 16.290000149 0.0 0.0 0.0 29.1751946751" Properties=species:S:1:pos:R:3:initial_magmoms:R:1 pbc="T T T"
Si      -1.36115732      -1.39171987      -1.32204477       0.00000000
Si       1.29538733      -1.35136954       1.42882598       0.00000000
Si      -1.35011244       1.33046947       1.40245161       0.00000000
Si       1.37300918       1.35752716      -1.35741969       0.00000000
Si      -2.66085098      -2.68244826       0.14844339       0.00000000
Si      -2.81187557      -0.00908982      -2.54802146       0.00000000
Si       0.07182098      -2.69822513      -2.67329391       0.00000000
Si       2.69489382       2.70376535       0.02990457       0.00000000
Si       2.65170903      -2.74394953       0.13729847       0.00000000
Si       0.01214745       2.69298137      -2.72853423       0.00000000
