10
Lattice="16.290000149 0.0 0.0 0.0 16.290000149 0.0 0.0 0.0 29.1751946751" Properties=species:S:1:pos:R:3:initial_magmoms:R:1 pbc="T T T"
Si       1.30409596      -1.38038203       1.37517280       0.00000000
Si      -1.37310040      -1.38390067      -1.30970366       0.00000000
Si      -1.32369283       1.37086867       1.37350981       0.00000000
Si       1.35386191       1.34798122      -1.37383074       0.00000000
Si      -2.68341914       2.69630453      -0.01773852       0.00000000
Si       2.68324158      -0.01863576       2.70906270       0.00000000
Si      -2.69689097      -0.01946655      -2.70241076       0.00000000
Si      -0.00226431      -2.72376296      -2.67539453       0.00000000
Si       2.69621494       2.70892928      -0.01963491       0.00000000
Si      -2.66385485       0.02246391       2.74620272       0.00000000
