10
Lattice="16.290000149 0.0 0.0 0.0 16.290000149 0.0 0.0 0.0 29.1751946751" Properties=species:S:1:pos:R:3:initial_magmoms:R:1 pbc="T T T"
H       -1.44399448       0.28689948       0.43850318       0.00000000
Si       0.44975061      -2.13495113       0.88847220       0.00000000
Si      -0.35505684       0.24006573      -2.36330747       0.00000000
Si       1.24538680       1.59073480       1.42135713       0.00000000
H        0.17976015       2.70181055      -0.98028654       0.00000000
H        1.53419873      -1.39388644      -2.09930113       0.00000000
H        0.38162583      -3.21339801      -0.16985798       0.00000000
Si      -0.76870882       2.96008851       1.49379914       0.00000000
Si       3.40579920       0.18616212       0.37825640       0.00000000
Si      -2.65437407       2.25595325       0.22196488       0.00000000
