10
Lattice="16.290000149 0.0 0.0 0.0 16.290000149 0.0 0.0 0.0 29.1751946751" Properties=species:S:1:pos:R:3:initial_magmoms:R:1 pbc="T T T"
Si       1.34591239       1.21187713       1.48256669       0.00000000
Si       1.17068575      -1.59065612      -1.28776392       0.00000000
Si      -1.47721794      -1.31111972       1.36971412       0.00000000
Si      -0.28669586       1.82224552      -1.57239712       0.00000000
Si       2.48525944      -0.16436887      -2.63449090       0.00000000
Si       2.68225441       2.61608980       0.12912854       0.00000000
Si       0.64533161       1.01104912      -3.56923497       0.00000000
Si      -0.08706591       2.51838238       2.83381583       0.00000000
Si       2.52642427      -2.83363201       0.16701574       0.00000000
Si       2.62419685      -0.16143667       2.86938040       0.00000000
