10
Lattice="16.290000149 0.0 0.0 0.0 16.290000149 0.0 0.0 0.0 29.1751946751" Properties=species:S:1:pos:R:3:initial_magmoms:R:1 pbc="T T T"
H        0.65114389      -0.42181326       0.04536743       0.00000000
H       -1.15136092      -1.63049869       1.12490798       0.00000000
Si      -1.87005944      -1.71142742      -0.19987926       0.00000000
Si       0.85177153       1.74579932       1.75730950       0.00000000
Si      -0.08737956       0.82471384      -2.57234774       0.00000000
Si      -2.21306168       0.23947929      -1.57003393       0.00000000
Si       2.63736731       0.20035071       1.12852571       0.00000000
Si       1.40053276      -0.97474474      -2.45450913       0.00000000
Si      -0.25979292      -2.49939101      -1.72238679       0.00000000
Si      -0.37320390       3.06887313       0.24218329       0.00000000
