10
Lattice="16.290000149 0.0 0.0 0.0 16.290000149 0.0 0.0 0.0 29.1751946751" Properties=species:S:1:pos:R:3:initial_magmoms:R:1 pbc="T T T"
Si       1.36831598      -1.35627283       1.34144628       0.00000000
Si       1.39803029       1.33542163      -1.33406495       0.00000000
Si      -1.35086455       1.36068742       1.35991417       0.00000000
Si      -1.35679411      -1.34793235      -1.36811240       0.00000000
Si       0.08145000       2.76930980      -2.61123827       0.00000000
Si       2.69891419      -2.70523145      -0.04942278       0.00000000
Si       0.02060685      -2.71039538       2.69861798       0.00000000
Si      -2.71050941      -0.00283446       2.70238158       0.00000000
Si       2.68287995       0.00951336       2.73567048       0.00000000
Si      -2.71077005       2.71366153       0.00703122       0.00000000
