10
Lattice="16.290000149 0.0 0.0 0.0 16.290000149 0.0 0.0 0.0 29.1751946751" Properties=species:S:1:pos:R:3:initial_magmoms:R:1 pbc="T T T"
Si       0.61392124      -1.30557998       0.43920338       0.00000000
Si      -1.51604190       1.46808739       0.63275162       0.00000000
H        2.01536624       0.34463124      -1.41190437       0.00000000
Si      -0.03684798       2.67001247      -0.75560837       0.00000000
Si       1.10861596       1.24401844      -2.21967799       0.00000000
Si      -2.83133023      -0.23309361      -0.50525602       0.00000000
Si      -1.61359293      -1.51830783      -2.11137966       0.00000000
Si      -0.22652874       1.62741988       2.65786023       0.00000000
Si      -0.23284926      -2.96881995      -0.95534175       0.00000000
Si       2.92126944      -1.22034907       0.08166137       0.00000000
