10
Lattice="10.86 0.0 0.0 0.0 10.86 0.0 0.0 0.0 10.86" Properties=species:S:1:pos:R:3:initial_magmoms:R:1 pbc="T T T"
Si      -1.19888970       1.16110776      -1.41096378       0.00000000
Si      -1.19888970      -1.55389224       1.30403622       0.00000000
Si       1.89088890       1.36895730       1.11625596       0.00000000
Si       1.51611030      -1.55389224      -1.41096378       0.00000000
Si      -0.15497220       2.46603450       2.52097524       0.00000000
Si      -2.55638970       2.51860776      -0.05346378       0.00000000
Si       0.17508492       2.42928426      -2.65002462       0.00000000
Si      -2.55638970      -0.19639224       2.66153622       0.00000000
Si      -2.55638970      -0.19639224      -2.76846378       0.00000000
Si       2.91259770      -0.15218118       2.42723172       0.00000000
