10
Lattice="10.86 0.0 0.0 0.0 10.86 0.0 0.0 0.0 10.86" Properties=species:S:1:pos:R:3:initial_magmoms:R:1 pbc="T T T"
Si       1.32292176       1.27334586       1.08209040       0.00000000
Si      -1.39207824      -1.44165414       1.08209040       0.00000000
Si       0.95383380      -1.13635782      -1.78155042       0.00000000
Si      -1.39207824       1.27334586      -1.63290960       0.00000000
Si      -0.03457824       2.63084586       2.43959040       0.00000000
Si      -2.74957824      -0.08415414       2.43959040       0.00000000
Si      -0.34816074      -2.85172740       2.29902942       0.00000000
Si       2.76284916      -0.22623552       2.54494326       0.00000000
Si       2.68042176       2.63084586      -0.27540960       0.00000000
Si      -2.74957824       2.63084586      -0.27540960       0.00000000
