10
Lattice="10.86 0.0 0.0 0.0 10.86 0.0 0.0 0.0 10.86" Properties=species:S:1:pos:R:3:initial_magmoms:R:1 pbc="T T T"
Si       1.18288206      -1.40737998      -1.27237932       0.00000000
Si       1.18288206       1.30762002       1.44262068       0.00000000
Si      -1.53211794       1.30762002      -1.27237932       0.00000000
Si       2.54038206      -0.04987998      -2.62987932       0.00000000
Si       2.54038206       2.66512002       0.08512068       0.00000000
Si      -0.39299082      -2.72929176      -2.45431656       0.00000000
Si      -0.17461794       2.66512002      -2.62987932       0.00000000
Si       2.54038206      -2.76487998       0.08512068       0.00000000
Si       2.54038206      -0.04987998       2.80012068       0.00000000
Si      -0.17461794       2.66512002       2.80012068       0.00000000
