10
Lattice="10.86 0.0 0.0 0.0 10.86 0.0 0.0 0.0 10.86" Properties=species:S:1:pos:R:3:initial_magmoms:R:1 pbc="T T T"
Si       1.39846392      -1.20889176      -1.10502672       0.00000000
Si      -1.31653608       1.50610824      -1.10502672       0.00000000
Si      -1.31653608      -1.20889176       1.60997328       0.00000000
Si       0.04096392      -2.56639176      -2.46252672       0.00000000
Si      -2.67403608       0.14860824      -2.46252672       0.00000000
Si       2.75596392       0.14860824      -2.46252672       0.00000000
Si      -2.67403608      -2.56639176       0.25247328       0.00000000
Si       2.75596392      -2.56639176       0.25247328       0.00000000
Si       0.04096392       2.86360824      -2.46252672       0.00000000
Si      -2.65756146       2.77428474       0.37091244       0.00000000
