10
Lattice="10.86 0.0 0.0 0.0 10.86 0.0 0.0 0.0 10.86" Properties=species:S:1:pos:R:3:initial_magmoms:R:1 pbc="T T T"
Si      -1.26401712       1.18284948      -1.43154348       0.00000000
Si       1.45098288       1.18284948       1.28345652       0.00000000
Si      -1.26401712      -1.53215052       1.28345652       0.00000000
Si       1.27128246      -1.74978492      -1.08018990       0.00000000
Si       2.55670464      -0.34915986      -2.57632866       0.00000000
Si      -2.62151712       2.54034948      -0.07404348       0.00000000
Si       0.09348288       2.54034948       2.64095652       0.00000000
Si       2.63818722      -0.21722172       2.61644550       0.00000000
Si      -2.62151712      -0.17465052       2.64095652       0.00000000
Si       0.09348288       2.54034948      -2.78904348       0.00000000
