10
Lattice="10.86 0.0 0.0 0.0 10.86 0.0 0.0 0.0 10.86" Properties=species:S:1:pos:R:3:initial_magmoms:R:1 pbc="T T T"
Si      -1.18720434      -1.31492880       1.38201102       0.00000000
Si      -1.18720434       1.40007120      -1.33298898       0.00000000
Si       1.52779566       1.40007120       1.38201102       0.00000000
Si      -2.25997686      -2.86584540       0.07593312       0.00000000
Si      -2.63818722       0.21722172      -2.61644550       0.00000000
Si      -2.54470434       0.04257120       2.73951102       0.00000000
Si      -2.54470434       2.75757120       0.02451102       0.00000000
Si       0.17029566      -2.67242880       2.73951102       0.00000000
Si       2.73866394       0.21277998      -2.68283268       0.00000000
Si       0.17029566       2.75757120      -2.69048898       0.00000000
