10
Lattice="10.86 0.0 0.0 0.0 10.86 0.0 0.0 0.0 10.86" Properties=species:S:1:pos:R:3:initial_magmoms:R:1 pbc="T T T"
Si      -1.24412160      -1.29458802       1.27128246       0.00000000
Si      -1.24412160       1.42041198      -1.44371754       0.00000000
Si       1.47087840      -1.29458802      -1.44371754       0.00000000
Si      -2.27935110       0.07782276       2.61247074       0.00000000
Si      -2.60162160      -2.65208802      -0.08621754       0.00000000
Si       0.11337840      -2.65208802       2.62878246       0.00000000
Si      -2.60162160       0.06291198      -2.80121754       0.00000000
Si       0.11337840      -2.65208802      -2.80121754       0.00000000
Si       2.82837840      -2.65208802      -0.08621754       0.00000000
Si       0.11337840       2.77791198      -2.80121754       0.00000000
