10
Lattice="16.28999089631971 0.0 0.0 0.0 16.28999089631971 0.0 0.0 0.0 34.450931932916035" Properties=species:S:1:pos:R:3:initial_magmoms:R:1 pbc="T T T"
Si       0.80532873       1.99213668      -0.89227964       0.00000000
Si       1.59270588      -0.25332579       1.69691605       0.00000000
Si      -2.08363435       0.78646491       0.81187112       0.00000000
Si       0.50935572      -1.77580548      -1.51012299       0.00000000
Si       0.58717305       3.18819735       1.12909547       0.00000000
Si      -1.01573526       2.13822540       2.50992405       0.00000000
Si       3.05971812       1.53766197      -1.38430812       0.00000000
Si       3.67015329       0.16871553       0.43900847       0.00000000
Si      -3.48518753      -1.02556953       1.08830555       0.00000000
Si       1.60438581      -2.39537934       2.48997695       0.00000000
