10
Lattice="16.28999089631971 0.0 0.0 0.0 16.28999089631971 0.0 0.0 0.0 34.450931932916035" Properties=species:S:1:pos:R:3:initial_magmoms:R:1 pbc="T T T"
Si      -1.34806266      -1.33462424       1.35922783       0.00000000
Si      -1.39224114       1.30822042      -1.34542678       0.00000000
Si       1.36676358       1.38085427       1.34965046       0.00000000
Si       1.31106807      -1.32735890      -1.45806072       0.00000000
Si       2.23028019       0.63663584      -2.47777442       0.00000000
Si       0.34212258       2.26609196      -2.66344851       0.00000000
Si      -2.72547990      -2.66237327      -0.01571652       0.00000000
Si       2.72249883      -2.68174208      -0.01958537       0.00000000
Si       0.00835677      -2.69239574       2.71390813       0.00000000
Si      -2.70471015       0.02133257       2.71397703       0.00000000
