10
Lattice="16.28999089631971 0.0 0.0 0.0 16.28999089631971 0.0 0.0 0.0 34.450931932916035" Properties=species:S:1:pos:R:3:initial_magmoms:R:1 pbc="T T T"
Si      -1.35635427       1.36044493      -1.36119153       0.00000000
Si       1.36018242      -1.35834534      -1.36146714       0.00000000
Si      -1.36516716      -1.35872001       1.36611802       0.00000000
Si       1.37652129       1.36659604       1.38334349       0.00000000
Si       0.09510102      -2.57905278       2.77037324       0.00000000
Si      -2.71292031       2.71538360      -0.00299723       0.00000000
Si       2.71332756       2.71544876      -0.00189480       0.00000000
Si       2.71529865      -2.71439010      -0.00482313       0.00000000
Si      -2.71554300      -2.71632861      -0.00337619       0.00000000
Si      -2.71347417       0.00072880      -2.71849011       0.00000000
