10
Lattice="16.28999089631971 0.0 0.0 0.0 16.28999089631971 0.0 0.0 0.0 34.450931932916035" Properties=species:S:1:pos:R:3:initial_magmoms:R:1 pbc="T T T"
Si      -0.48181422       2.29322475       0.02308214       0.00000000
Si       2.33147367      -0.48048984       0.36800506       0.00000000
Si      -0.20110005      -0.26834517      -2.49163059       0.00000000
Si      -0.53627657      -1.17996615       2.23262834       0.00000000
Si       2.25992799      -2.79156029       0.78661857       0.00000000
Si       0.17717004      -3.39547131       1.72209970       0.00000000
Si       3.01052232       0.44738856       2.41339248       0.00000000
Si       1.58255721      -2.04877701      -2.91716874       0.00000000
Si       1.24668999      -0.51349338       3.71915244       0.00000000
Si       0.48637053       3.35393181       2.10764029       0.00000000
