10
Lattice="16.28999089631971 0.0 0.0 0.0 16.28999089631971 0.0 0.0 0.0 34.450931932916035" Properties=species:S:1:pos:R:3:initial_magmoms:R:1 pbc="T T T"
Si       1.42622208      -1.23297381       1.38713310       0.00000000
Si       1.35565380       1.33884252      -1.37121676       0.00000000
Si      -1.35413883      -1.37459907      -1.37066554       0.00000000
Si      -1.23843096       1.32374169       1.64448170       0.00000000
Si      -0.44642745      -2.26196424       2.59760172       0.00000000
Si      -2.23008471      -0.48153240       3.02313987       0.00000000
Si      -2.70328152       2.69342118       0.03221164       0.00000000
Si       0.00392589       2.69895978      -2.72875649       0.00000000
Si       2.54094678       0.46970586       2.84637204       0.00000000
Si      -2.71127339      -0.01813077      -2.72941106       0.00000000
