10
Lattice="16.28999089631971 0.0 0.0 0.0 16.28999089631971 0.0 0.0 0.0 34.450931932916035" Properties=species:S:1:pos:R:3:initial_magmoms:R:1 pbc="T T T"
Si      -1.35565380      -1.33884252       1.37121676       0.00000000
Si      -1.35172791       1.36011726      -1.35753973       0.00000000
Si       1.36334268      -1.35498591      -1.35778089       0.00000000
Si       1.37288862       1.37411037       1.36318969       0.00000000
Si       0.07056828      -2.57181633       2.75834986       0.00000000
Si      -2.70979263      -2.71344159       0.00055122       0.00000000
Si      -2.71026504       0.00177561      -2.71463160       0.00000000
Si       0.00400734      -2.71285515      -2.71487276       0.00000000
Si      -2.71044423       2.71772586       0.00396186       0.00000000
Si       2.71645524      -2.71337643       0.00165365       0.00000000
