10
Lattice="16.28999089631971 0.0 0.0 0.0 16.28999089631971 0.0 0.0 0.0 34.450931932916035" Properties=species:S:1:pos:R:3:initial_magmoms:R:1 pbc="T T T"
Si       1.40450751      -1.26597735      -1.33437147       0.00000000
Si      -1.38199473       1.26063423      -1.37560237       0.00000000
Si       1.36036161       1.33711578       1.33593899       0.00000000
Si      -1.35257499      -1.38015396       1.32860093       0.00000000
Si      -0.43276014      -2.13830685      -2.55655479       0.00000000
Si      -2.39168151      -0.65314755      -2.50379626       0.00000000
Si       0.08966016       2.54518218      -2.65417259       0.00000000
Si       0.00651600       2.69508276       2.69051593       0.00000000
Si      -2.70951570      -0.01971090       2.68965466       0.00000000
Si       2.71886616      -0.01959687       2.68989582       0.00000000
