10
Lattice="16.28999089631971 0.0 0.0 0.0 16.28999089631971 0.0 0.0 0.0 34.450931932916035" Properties=species:S:1:pos:R:3:initial_magmoms:R:1 pbc="T T T"
Si       1.50930108      -1.91840814      -0.07138237       0.00000000
Si       0.72705528       1.89003096      -1.39202513       0.00000000
Si       0.89691111       0.90981279       2.14650096       0.00000000
Si      -2.01976452      -0.91676862      -1.23231052       0.00000000
Si       1.99389600       0.41959782      -2.80272268       0.00000000
Si       3.27269358      -0.98319924      -1.39553913       0.00000000
Si      -0.73795329      -2.32507170      -2.77557533       0.00000000
Si      -0.22387347      -2.21131863       3.17289815       0.00000000
Si       0.66916062      -3.67952004      -1.37056219       0.00000000
Si       1.77082074       3.57352101      -0.01329807       0.00000000
