10
Lattice="16.28999089631971 0.0 0.0 0.0 16.28999089631971 0.0 0.0 0.0 34.450931932916035" Properties=species:S:1:pos:R:3:initial_magmoms:R:1 pbc="T T T"
Si      -2.14275402       0.88225011       0.45495926       0.00000000
Si       1.04928777       1.86648932      -0.99701053       0.00000000
Si      -0.46305954      -1.41379281      -1.88171095       0.00000000
Si       1.19575116      -0.90117909       1.91884908       0.00000000
Si      -3.40048537      -1.02281652       0.22355222       0.00000000
Si      -0.60714459       2.74002591      -2.45008275       0.00000000
Si      -2.68990254       2.13611489      -1.51460162       0.00000000
Si       2.83219569       1.06210800      -2.27503746       0.00000000
Si      -2.83647996      -1.55978379      -2.02805859       0.00000000
Si       3.46625136       0.03896568       1.66280961       0.00000000
