10
Lattice="16.28999089631971 0.0 0.0 0.0 16.28999089631971 0.0 0.0 0.0 34.450931932916035" Properties=species:S:1:pos:R:3:initial_magmoms:R:1 pbc="T T T"
Si      -0.84230703       0.72917298       2.12731178       0.00000000
Si      -1.19575116       0.90117909      -1.91884908       0.00000000
Si       2.27050020       0.94014477      -0.25603947       0.00000000
Si      -0.21074373      -2.47961493       0.02842203       0.00000000
Si       3.49795170      -0.19904751       1.42706175       0.00000000
Si       0.86613930      -3.29479911      -1.87302931       0.00000000
Si      -0.10948509       2.94399463       2.62877983       0.00000000
Si       2.91315699       0.82419255      -2.58588840       0.00000000
Si       0.08177580      -0.42754734       3.96781940       0.00000000
Si      -0.14646339       2.76766841      -2.91585961       0.00000000
