10
Lattice="16.28999089631971 0.0 0.0 0.0 16.28999089631971 0.0 0.0 0.0 34.450931932916035" Properties=species:S:1:pos:R:3:initial_magmoms:R:1 pbc="T T T"
Si      -1.92665902       0.90772767      -0.97709788       0.00000000
Si       0.61695117      -1.14904773      -1.96876851       0.00000000
Si       1.39690008       1.87230744       0.35887556       0.00000000
Si       0.92369187      -1.77592603       1.27110229       0.00000000
Si      -0.69836859       1.96362918      -2.67273924       0.00000000
Si      -2.63735100      -1.99876997       1.29607923       0.00000000
Si       3.47192028       0.75471570      -0.32793860       0.00000000
Si       2.92874652      -1.25138151      -1.61667979       0.00000000
Si      -0.68167134      -3.15766289      -1.74721444       0.00000000
Si      -2.86382435       2.28126789       0.66938198       0.00000000
