10
Lattice="16.28999089631971 0.0 0.0 0.0 16.28999089631971 0.0 0.0 0.0 34.450931932916035" Properties=species:S:1:pos:R:3:initial_magmoms:R:1 pbc="T T T"
Si       1.35161388       1.33672482       1.37469975       0.00000000
Si       1.41750693      -1.29637612      -1.38177942       0.00000000
Si      -1.36029645      -1.37952517       1.36570805       0.00000000
Si      -1.38609981       1.34442999      -1.51159749       0.00000000
Si      -0.49677984      -2.12374359      -2.46171683       0.00000000
Si      -2.38493745      -0.49428747      -2.64739092       0.00000000
Si       2.70782154       2.68395669      -0.00725193       0.00000000
Si      -2.72184723       2.67727779      -0.00065112       0.00000000
Si      -0.00128691       2.69145009       2.73065474       0.00000000
Si       2.71287144      -0.02217069       2.72982792       0.00000000
