10
Lattice="16.28999089631971 0.0 0.0 0.0 16.28999089631971 0.0 0.0 0.0 34.450931932916035" Properties=species:S:1:pos:R:3:initial_magmoms:R:1 pbc="T T T"
Si       0.67502502      -0.26226085      -2.16161257       0.00000000
Si       1.91428677       0.82736747       1.07993741       0.00000000
Si      -0.91921212      -1.96399475       1.01971370       0.00000000
Si      -1.88815761       1.62945612      -0.18567409       0.00000000
Si       0.49677984       2.12374359       2.46171683       0.00000000
Si      -2.23028019      -0.63663584       2.47777442       0.00000000
Si      -0.88931997       3.46817358       0.95011934       0.00000000
Si      -3.62252133       0.67158457       1.13234764       0.00000000
Si       1.41723000      -2.45223863      -2.70686777       0.00000000
Si      -0.86351661       0.74421842       3.82742488       0.00000000
