10
Lattice="16.28999089631971 0.0 0.0 0.0 16.28999089631971 0.0 0.0 0.0 34.450931932916035" Properties=species:S:1:pos:R:3:initial_magmoms:R:1 pbc="T T T"
Si      -1.70346159      -0.78625330      -1.56744938       0.00000000
Si       0.85558338       1.73814300      -1.56055919       0.00000000
Si       1.77847704      -1.77208226      -0.26420434       0.00000000
Si      -1.42107444       0.49278227       2.14422720       0.00000000
Si       2.25842931       0.86780088       1.58639740       0.00000000
Si       2.29887738       2.84381046      -0.08443928       0.00000000
Si       2.20086045       0.46742037      -3.08439366       0.00000000
Si      -0.50604885      -2.27441699      -3.05872770       0.00000000
Si      -3.43559358      -1.81077101      -0.28769989       0.00000000
Si       3.46416624      -0.94758020      -1.74435501       0.00000000
