10
Lattice="16.28999089631971 0.0 0.0 0.0 16.28999089631971 0.0 0.0 0.0 34.450931932916035" Properties=species:S:1:pos:R:3:initial_magmoms:R:1 pbc="T T T"
Si       1.04914116      -1.04173084       1.79885642       0.00000000
Si      -0.48479040       2.29168372      -0.44924040       0.00000000
Si      -2.19131451      -0.93934656       0.22334552       0.00000000
Si       2.19175434      -0.15661695      -1.00452083       0.00000000
Si       3.10031280       1.94190484      -0.48934131       0.00000000
Si       1.39390272       3.19296055      -1.58023068       0.00000000
Si      -3.26042721       0.56520436       1.93369744       0.00000000
Si       2.99291283      -2.32126051      -0.64016757       0.00000000
Si       1.08716202      -3.33500350      -1.66391204       0.00000000
Si       1.79134614      -3.23170861       1.25360121       0.00000000
