10
Lattice="16.28999089631971 0.0 0.0 0.0 16.28999089631971 0.0 0.0 0.0 34.450931932916035" Properties=species:S:1:pos:R:3:initial_magmoms:R:1 pbc="T T T"
Si       1.35606105      -1.35819504      -1.36002020       0.00000000
Si      -1.36042677       1.35589815      -1.36088147       0.00000000
Si       1.36593279       1.34227971       1.37793469       0.00000000
Si      -1.35399222      -1.36666584       1.37955389       0.00000000
Si      -2.58776424       0.15244182       2.75662731       0.00000000
Si      -2.71645524       2.71103067      -0.00234266       0.00000000
Si       2.71689507       2.71254564       0.00024116       0.00000000
Si      -0.00131949       2.71334385      -2.71714652       0.00000000
Si       2.71386513      -0.00130320      -2.71700872       0.00000000
Si       2.71451673      -2.71766070      -0.00003445       0.00000000
