10
Lattice="16.28999089631971 0.0 0.0 0.0 16.28999089631971 0.0 0.0 0.0 34.450931932916035" Properties=species:S:1:pos:R:3:initial_magmoms:R:1 pbc="T T T"
Si      -1.47525498       1.21872006      -1.39557358       0.00000000
Si       1.23377202      -1.51910766      -1.37707342       0.00000000
Si      -1.66285062      -1.02452697       1.45882553       0.00000000
Si       1.55665611       1.17832086       1.46361421       0.00000000
Si       0.02238246      -0.68343066       3.38704527       0.00000000
Si      -0.12869100       2.55858885      -2.75896997       0.00000000
Si       2.58776424      -0.15244182      -2.75662731       0.00000000
Si      -2.80780956       2.55717162       0.03662136       0.00000000
Si       2.78488953       2.63735100       0.06635253       0.00000000
Si      -2.77757532      -2.72720664      -0.00041341       0.00000000
