10
Lattice="16.28999089631971 0.0 0.0 0.0 16.28999089631971 0.0 0.0 0.0 34.450931932916035" Properties=species:S:1:pos:R:3:initial_magmoms:R:1 pbc="T T T"
Si      -2.04242391       1.02004722       0.48393251       0.00000000
Si       1.14201045       1.37477826       1.52311100       0.00000000
Si       0.84025449       0.47268693      -2.17295930       0.00000000
Si      -0.29918214      -2.27255274       0.78265671       0.00000000
Si      -3.60132804      -0.65852325       0.13418645       0.00000000
Si      -1.93533345       1.07966862       2.97387501       0.00000000
Si       3.21862707       0.33674688       1.82476353       0.00000000
Si       0.26005356       0.81024831       3.65913888       0.00000000
Si      -0.04893516      -3.60904950      -1.18566394       0.00000000
Si      -2.61573417      -2.36317401       1.42527030       0.00000000
