10
Lattice="16.28999089631971 0.0 0.0 0.0 16.28999089631971 0.0 0.0 0.0 34.450931932916035" Properties=species:S:1:pos:R:3:initial_magmoms:R:1 pbc="T T T"
Si      -0.86488497      -1.88825535       1.31725076       0.00000000
Si       1.90977444       0.86320710       1.35048559       0.00000000
Si       1.10793177       0.04829985      -2.31038414       0.00000000
Si      -1.09069695      -0.72865170      -2.23379967       0.00000000
Si      -1.85170059       1.88294481       0.10879610       0.00000000
Si       0.53370927       2.17717479       2.83863922       0.00000000
Si      -2.20063239      -0.55540755       2.82819713       0.00000000
Si      -1.91829411       1.39624848      -2.78460148       0.00000000
Si       2.72676681      -1.71996336      -1.88333015       0.00000000
Si      -0.82090197       3.54071295       1.52621301       0.00000000
