10
Lattice="16.28999089631971 0.0 0.0 0.0 16.28999089631971 0.0 0.0 0.0 34.450931932916035" Properties=species:S:1:pos:R:3:initial_magmoms:R:1 pbc="T T T"
Si      -1.35461124       1.36353816      -1.31242621       0.00000000
Si       1.34201907       1.35316143       1.36625238       0.00000000
Si      -1.36912563      -1.36285398       1.36149815       0.00000000
Si       1.37606517      -1.31396769      -1.48815362       0.00000000
Si      -0.53370927      -2.17717479      -2.83863922       0.00000000
Si      -2.38540986      -0.29422998      -2.72984311       0.00000000
Si       0.09746307       2.54270610      -2.68967289       0.00000000
Si       2.70220149       2.68882740      -0.00636998       0.00000000
Si       2.69715159      -0.00192222       2.72045037       0.00000000
Si       2.69532711      -2.72590344      -0.01704289       0.00000000
