10
Lattice="16.28999089631971 0.0 0.0 0.0 16.28999089631971 0.0 0.0 0.0 34.450931932916035" Properties=species:S:1:pos:R:3:initial_magmoms:R:1 pbc="T T T"
Si      -0.29989890       1.04583429       2.00356397       0.00000000
Si      -1.58286672      -1.12609512      -1.32195190       0.00000000
Si       1.18527669       1.61222130      -1.24433391       0.00000000
Si      -0.14273298      -2.46195657      -2.70829263       0.00000000
Si       2.56968234       0.25373304      -2.69885306       0.00000000
Si      -2.19455622       2.31849054       1.95006164       0.00000000
Si      -3.34625922      -2.06130402       0.00220486       0.00000000
Si      -2.86166430       0.27670194      -2.72913545       0.00000000
Si      -0.15519483       2.96697915      -2.71073864       0.00000000
Si       1.78683381       1.36826226       3.35493698       0.00000000
