10
Lattice="16.28999089631971 0.0 0.0 0.0 16.28999089631971 0.0 0.0 0.0 34.450931932916035" Properties=species:S:1:pos:R:3:initial_magmoms:R:1 pbc="T T T"
Si       1.68568920       0.82450206      -1.48015067       0.00000000
Si      -0.94405437      -1.85709258      -1.32811862       0.00000000
Si      -1.77847704       1.77208226       0.26420434       0.00000000
Si       2.11483296       0.89719229       1.50213037       0.00000000
Si       0.47995227       2.63988314       1.85060174       0.00000000
Si       0.42238341       2.23950263      -2.82018932       0.00000000
Si      -2.28452589      -0.50233473      -2.79452336       0.00000000
Si      -3.48193863       0.98582895      -1.30324503       0.00000000
Si      -0.92289366       3.51022526      -1.29635484       0.00000000
Si      -0.34249725      -2.10105162       3.27115227       0.00000000
