10
Lattice="16.28999089631971 0.0 0.0 0.0 16.28999089631971 0.0 0.0 0.0 34.450931932916035" Properties=species:S:1:pos:R:3:initial_magmoms:R:1 pbc="T T T"
Si       0.29989890      -1.04583429      -2.00356397       0.00000000
Si      -1.89465732       1.27265625      -0.05350233       0.00000000
Si       0.15234408      -0.50381712       2.33119251       0.00000000
Si       2.08673271       0.32242797       1.35137301       0.00000000
Si      -1.61220501       2.68767081       1.75172751       0.00000000
Si       1.48517559       0.56638701      -3.24789787       0.00000000
Si      -3.65875029      -0.27891738       0.21652423       0.00000000
Si      -0.33549255       1.54857627       3.35972566       0.00000000
Si       2.42922996       2.42347959      -1.91977925       0.00000000
Si       3.83135913      -1.01823903       0.31942922       0.00000000
