10
Lattice="16.28999089631971 0.0 0.0 0.0 16.28999089631971 0.0 0.0 0.0 34.450931932916035" Properties=species:S:1:pos:R:3:initial_magmoms:R:1 pbc="T T T"
Si      -0.87011406      -2.00569648       0.98863895       0.00000000
Si       1.33800426      -1.31725501      -1.55842323       0.00000000
Si      -1.36288656       1.39074246      -1.52710731       0.00000000
Si       1.83017240       0.92711277       1.46919526       0.00000000
Si       2.65356674      -2.68051040      -0.17218585       0.00000000
Si      -2.75936310       2.63674827       0.01901693       0.00000000
Si       3.61382966      -0.85331907       1.04365712       0.00000000
Si       2.82182615       2.73238686       0.09053710       0.00000000
Si      -2.83232601      -2.71370942      -0.22916773       0.00000000
Si       0.94193571      -3.61379708       1.31054863       0.00000000
