10
Lattice="16.28999089631971 0.0 0.0 0.0 16.28999089631971 0.0 0.0 0.0 34.450931932916035" Properties=species:S:1:pos:R:3:initial_magmoms:R:1 pbc="T T T"
Si       0.87011406       2.00569648      -0.98863895       0.00000000
Si      -1.96221195      -0.70801294      -1.21780667       0.00000000
Si      -1.53306819      -0.63532271       1.76447437       0.00000000
Si       1.81204977      -1.60810060       0.32190969       0.00000000
Si      -0.50280714      -2.04910348      -2.53417752       0.00000000
Si       2.20811832       0.68844146      -2.54706217       0.00000000
Si       0.92084114      -3.41743090      -1.07135568       0.00000000
Si       3.52368080      -0.67481392      -1.16082480       0.00000000
Si      -3.64790115      -1.53251500       0.26234399       0.00000000
Si      -3.16794888       1.10736814       2.11294574       0.00000000
