10
Lattice="16.28999089631971 0.0 0.0 0.0 16.28999089631971 0.0 0.0 0.0 34.450931932916035" Properties=species:S:1:pos:R:3:initial_magmoms:R:1 pbc="T T T"
Si      -2.15793630       0.91547682       0.45699187       0.00000000
Si       1.20272328       1.72468257       1.13846613       0.00000000
Si       1.10389185       0.32458965      -2.11301464       0.00000000
Si       0.30799503      -2.37748870       0.58831889       0.00000000
Si      -2.07295137      -1.13982433      -2.56246175       0.00000000
Si       1.74428433      -1.88896789      -2.50858046       0.00000000
Si      -3.49702317      -0.67710362      -0.67299933       0.00000000
Si       3.37911615       1.24443708       0.49468121       0.00000000
Si      -2.11945932       2.90590305      -0.87643220       0.00000000
Si      -0.70648101       0.63046698      -3.63405859       0.00000000
