10
Lattice="16.28999089631971 0.0 0.0 0.0 16.28999089631971 0.0 0.0 0.0 34.450931932916035" Properties=species:S:1:pos:R:3:initial_magmoms:R:1 pbc="T T T"
Si       1.37278645       1.34193762      -1.34595043       0.00000000
Si      -1.35858600       1.35783666       1.36012355       0.00000000
Si       1.35979875      -1.35894438       1.36039916       0.00000000
Si      -1.36041048      -1.36614456      -1.37736970       0.00000000
Si       2.58451506      -0.16716798      -2.67675622       0.00000000
Si       0.09868482       2.62231533      -2.79689703       0.00000000
Si      -2.71371852       2.71292031       0.00592556       0.00000000
Si      -2.71661814      -2.71337643       0.00458198       0.00000000
Si       2.71624903       2.71415835       0.00068902       0.00000000
Si      -2.71342530      -0.00070047       2.71790444       0.00000000
