10
Lattice="16.28999089631971 0.0 0.0 0.0 16.28999089631971 0.0 0.0 0.0 34.450931932916035" Properties=species:S:1:pos:R:3:initial_magmoms:R:1 pbc="T T T"
Si       1.35517704       1.35835794      -1.39050929       0.00000000
Si      -1.36076886      -1.35796698      -1.39595254       0.00000000
Si      -1.39647654       1.24600581       1.54612424       0.00000000
Si       1.36288656      -1.39074246       1.52710731       0.00000000
Si       2.70089082      -2.70799747      -0.03131591       0.00000000
Si      -2.70935280       2.70197343      -0.01798340       0.00000000
Si      -2.73274524      -2.68945131      -0.04209906       0.00000000
Si       2.71986215       2.71132389       0.00537435       0.00000000
Si       2.71187028      -0.00022806      -2.75624835       0.00000000
Si      -0.00436572      -2.71536707      -2.75662731       0.00000000
