10
Lattice="16.28999089631971 0.0 0.0 0.0 16.28999089631971 0.0 0.0 0.0 34.450931932916035" Properties=species:S:1:pos:R:3:initial_magmoms:R:1 pbc="T T T"
Si      -1.63794321       1.84386510       0.00916395       0.00000000
Si       1.15540083      -0.08562024       2.18129643       0.00000000
Si       1.74166164       1.00866051      -1.44687105       0.00000000
Si      -0.97854030      -1.83526398      -1.35313001       0.00000000
Si      -2.29141656      -0.37929636      -2.91723764       0.00000000
Si      -1.48172211       2.45816100       2.38844999       0.00000000
Si       0.41353794       2.34852930      -2.92374887       0.00000000
Si       2.40173637       2.19292722       2.05903000       0.00000000
Si       2.61676600       2.84353353      -0.21435382       0.00000000
Si      -3.46022406       1.06821675      -1.47219250       0.00000000
