10
Lattice="16.28999089631971 0.0 0.0 0.0 16.28999089631971 0.0 0.0 0.0 34.450931932916035" Properties=species:S:1:pos:R:3:initial_magmoms:R:1 pbc="T T T"
Si      -2.25333054       0.61255287      -0.10610893       0.00000000
Si       0.82676637       1.24447455       1.84874139       0.00000000
Si       1.30170132      -0.02300148      -2.03660243       0.00000000
Si      -0.06040332      -2.30114169       0.79409442       0.00000000
Si       0.00478926       3.13545033      -1.03755930       0.00000000
Si       2.11598955      -2.78138718       0.15030950       0.00000000
Si      -2.72704374       0.83592135       2.22508358       0.00000000
Si       1.79460414      -2.34422874      -2.15869660       0.00000000
Si      -3.38258592      -1.11992121      -1.22080391       0.00000000
Si      -2.34624870       2.81944062      -0.99149838       0.00000000
