10
Lattice="16.28999089631971 0.0 0.0 0.0 16.28999089631971 0.0 0.0 0.0 34.450931932916035" Properties=species:S:1:pos:R:3:initial_magmoms:R:1 pbc="T T T"
Si       0.04261464       1.16998038      -2.12269536       0.00000000
Si       1.06564293       1.56812427       1.60543297       0.00000000
Si      -1.71271431      -1.00839987       1.55384956       0.00000000
Si       0.92245383      -2.07138753      -1.24026869       0.00000000
Si       2.18939229       2.38399263      -1.60410519       0.00000000
Si       2.43518756      -2.75509512       0.36225121       0.00000000
Si      -2.51455698      -1.82330712      -2.10702017       0.00000000
Si       2.33974456       0.28774656       3.05637956       0.00000000
Si      -0.39345237      -2.42033562       3.02496030       0.00000000
Si       2.00350710       3.46449204       0.51673089       0.00000000
