10
Lattice="16.28999089631971 0.0 0.0 0.0 16.28999089631971 0.0 0.0 0.0 34.450931932916035" Properties=species:S:1:pos:R:3:initial_magmoms:R:1 pbc="T T T"
Si       1.35561622       1.35576783      -1.36828843       0.00000000
Si      -1.35399222      -1.35755973      -1.37118231       0.00000000
Si      -1.30388418       1.31106807       1.51370589       0.00000000
Si       1.32812370      -1.33986879       1.47687783       0.00000000
Si       2.20322806       0.49500423       2.70939506       0.00000000
Si      -2.05148115      -0.50466420       2.93291283       0.00000000
Si       0.35888499       2.33875530       2.81726098       0.00000000
Si      -0.41353794      -2.34852930       2.92374887       0.00000000
Si      -2.71037907       2.71565703       0.01994710       0.00000000
Si      -2.70495450      -2.72782566       0.00651123       0.00000000
