10
Lattice="16.28999089631971 0.0 0.0 0.0 16.28999089631971 0.0 0.0 0.0 34.450931932916035" Properties=species:S:1:pos:R:3:initial_magmoms:R:1 pbc="T T T"
Si      -1.66276917      -1.02768723      -1.30355509       0.00000000
Si       1.05912695       1.70756667      -1.34837578       0.00000000
Si       1.84434307      -1.84375107      -0.10786593       0.00000000
Si      -2.10748617       0.15076395       2.22453237       0.00000000
Si       1.41127016      -0.30203289       3.18740200       0.00000000
Si      -0.35888499      -2.33875530      -2.81726098       0.00000000
Si       1.62931344      -2.49435738       2.16551789       0.00000000
Si       2.38104807       0.37924749      -2.80892385       0.00000000
Si      -2.41036614      -2.84341950       0.11565184       0.00000000
Si      -0.49769208       0.94952781       3.67960274       0.00000000
