10
Lattice="16.28999089631971 0.0 0.0 0.0 16.28999089631971 0.0 0.0 0.0 34.450931932916035" Properties=species:S:1:pos:R:3:initial_magmoms:R:1 pbc="T T T"
Si       0.87510436       1.83487302       1.23251723       0.00000000
Si      -1.32812370       1.33986879      -1.47687783       0.00000000
Si       1.39613675      -1.37860641      -1.44700885       0.00000000
Si      -1.74166164      -1.00866051       1.44687105       0.00000000
Si      -2.63200788       2.65093686       0.03682807       0.00000000
Si       0.66007473       1.18426671       3.50590105       0.00000000
Si      -3.37960485       0.83520459       1.45603500       0.00000000
Si      -0.58626081      -1.09428075       3.62816747       0.00000000
Si      -2.68211592      -0.01769094      -2.84806013       0.00000000
Si       0.02749252       2.69563662      -2.84516625       0.00000000
