10
Lattice="16.28999089631971 0.0 0.0 0.0 16.28999089631971 0.0 0.0 0.0 34.450931932916035" Properties=species:S:1:pos:R:3:initial_magmoms:R:1 pbc="T T T"
Si      -0.04261464      -1.16998038       2.12269536       0.00000000
Si      -1.61119503       1.78732251      -0.73952412       0.00000000
Si       2.14677765       1.21401225       0.51859017       0.00000000
Si       0.83294028      -1.23437475      -2.05751416       0.00000000
Si       1.30660461       3.05022105      -0.76687817       0.00000000
Si       0.87983919      -3.24136791       0.88242666       0.00000000
Si      -1.18853469       1.27992159      -3.04374154       0.00000000
Si      -0.64879812       3.67649010       0.31429603       0.00000000
Si       0.96422139       2.20193559      -2.88561167       0.00000000
Si      -0.96896178      -1.03112442      -3.48106191       0.00000000
