10
Lattice="16.28999089631971 0.0 0.0 0.0 16.28999089631971 0.0 0.0 0.0 34.450931932916035" Properties=species:S:1:pos:R:3:initial_magmoms:R:1 pbc="T T T"
Si       0.83857662      -0.62615502      -2.08686637       0.00000000
Si      -0.64039248       2.21355755       0.39556582       0.00000000
Si       1.22476365      -1.46930913       1.41121431       0.00000000
Si      -2.23370109      -0.93841803      -0.26072480       0.00000000
Si      -0.23960961      -3.10961439       0.63785936       0.00000000
Si       0.39017808      -2.94791985      -1.68589175       0.00000000
Si      -1.43628930      -0.48852081       3.09689935       0.00000000
Si      -2.19569652      -2.28455847       1.63817718       0.00000000
Si      -1.74428433       1.88896789       2.50858046       0.00000000
Si      -2.45076534       2.51943488      -1.12547812       0.00000000
