10
Lattice="16.28999089631971 0.0 0.0 0.0 16.28999089631971 0.0 0.0 0.0 34.450931932916035" Properties=species:S:1:pos:R:3:initial_magmoms:R:1 pbc="T T T"
Si      -1.46437326      -1.64030526      -0.77335495       0.00000000
Si      -0.39680811       0.59274423       2.23455760       0.00000000
Si       2.16936603      -0.65638926      -0.62128845       0.00000000
Si      -1.22476365       1.46930913      -1.41121431       0.00000000
Si      -2.66105295       0.98078832       1.68568504       0.00000000
Si      -3.42046017      -0.81524934       0.22696287       0.00000000
Si      -0.83458557      -1.47861072      -3.09710606       0.00000000
Si      -0.38618703       0.84315411      -3.49808068       0.00000000
Si       2.65877954      -2.34105219       0.93089915       0.00000000
Si       3.42709739       1.24867737      -0.38988141       0.00000000
