10
Lattice="16.28999089631971 0.0 0.0 0.0 16.28999089631971 0.0 0.0 0.0 34.450931932916035" Properties=species:S:1:pos:R:3:initial_magmoms:R:1 pbc="T T T"
Si       0.08229708       2.03757993      -1.06959868       0.00000000
Si      -0.48436686      -1.62667053      -1.61023746       0.00000000
Si       1.53144963      -0.83171853       1.68561614       0.00000000
Si      -2.19857985       0.65621007       0.82148293       0.00000000
Si       0.12989646      -2.64375297       1.96205057       0.00000000
Si      -0.21248676      -3.49203843      -0.15668293       0.00000000
Si       1.13784805       3.26631509       0.75227097       0.00000000
Si      -2.86210413      -1.30175019      -2.07691004       0.00000000
Si      -2.13796476       2.71810935      -1.74983271       0.00000000
Si       3.61508399      -1.61818344       0.87374502       0.00000000
