10
Lattice="16.28999089631971 0.0 0.0 0.0 16.28999089631971 0.0 0.0 0.0 34.450931932916035" Properties=species:S:1:pos:R:3:initial_magmoms:R:1 pbc="T T T"
Si      -0.92647746       0.24076620      -2.10123241       0.00000000
Si      -0.98095122      -1.10848563       1.81570293       0.00000000
Si       1.89441297      -1.12311405      -0.88849003       0.00000000
Si      -0.33795234       2.26812186       0.76339863       0.00000000
Si       0.05626566       0.27368829       3.45818648       0.00000000
Si      -2.62024731       2.29938237       0.07830701       0.00000000
Si       3.45331710       0.55545642      -0.53874397       0.00000000
Si       0.60616719       1.93077225      -2.92650495       0.00000000
Si      -2.33419573       2.11978512      -2.21378367       0.00000000
Si      -3.28514633      -1.32745581       1.72396005       0.00000000
