10
Lattice="16.28999089631971 0.0 0.0 0.0 16.28999089631971 0.0 0.0 0.0 34.450931932916035" Properties=species:S:1:pos:R:3:initial_magmoms:R:1 pbc="T T T"
Si       1.35711664       1.35762489      -1.35657510       0.00000000
Si      -1.35781437      -1.35749457      -1.35678181       0.00000000
Si       1.35742615      -1.35641943       1.36215616       0.00000000
Si      -1.35970916       1.35467640       1.36346530       0.00000000
Si      -2.71563489      -2.71331127      -0.00027561       0.00000000
Si       2.71516507       0.00058644      -2.71380478       0.00000000
Si       0.00007168       2.71508688      -2.71428709       0.00000000
Si      -0.00024435      -2.71523349      -2.71428709       0.00000000
Si      -2.71576521      -0.00029322      -2.71425264       0.00000000
Si       2.71614247      -2.71402803       0.00065457       0.00000000
