10
Lattice="16.28999089631971 0.0 0.0 0.0 16.28999089631971 0.0 0.0 0.0 34.450931932916035" Properties=species:S:1:pos:R:3:initial_magmoms:R:1 pbc="T T T"
Si       0.21502963       0.65060631      -2.27338382       0.00000000
Si      -0.21804328       2.19232449       1.02188411       0.00000000
Si      -0.11323016       0.45717885       2.53369520       0.00000000
Si      -1.24633554      -2.27854746       0.12226643       0.00000000
Si       0.92854466      -3.17625678       0.55273106       0.00000000
Si       2.30010239       0.21817197       2.71986815       0.00000000
Si      -2.32013976      -0.73371789       2.75325112       0.00000000
Si      -1.62931344       2.49435738      -2.16551789       0.00000000
Si      -0.66007473      -1.18426671      -3.50590105       0.00000000
Si      -2.40173637      -2.19292722      -2.05903000       0.00000000
