10
Lattice="16.28999089631971 0.0 0.0 0.0 16.28999089631971 0.0 0.0 0.0 34.450931932916035" Properties=species:S:1:pos:R:3:initial_magmoms:R:1 pbc="T T T"
Si      -1.35737402      -1.35729852       1.35719522       0.00000000
Si      -1.35790834       1.35709344      -1.35702297       0.00000000
Si       1.35707103      -1.35757545      -1.35743638       0.00000000
Si       1.35711990       1.35971613       1.35729857       0.00000000
Si      -2.71339582      -0.00032810      -2.71349472       0.00000000
Si      -0.00130320      -2.71402746      -2.71470050       0.00000000
Si      -0.00236205       2.71395433      -2.71497611       0.00000000
Si       2.71435383       2.71524124       0.00006890       0.00000000
Si      -2.71532887       2.71441045       0.00037896       0.00000000
Si       2.71463076      -2.71536324      -0.00006890       0.00000000
