10
Lattice="16.28999089631971 0.0 0.0 0.0 16.28999089631971 0.0 0.0 0.0 34.450931932916035" Properties=species:S:1:pos:R:3:initial_magmoms:R:1 pbc="T T T"
Si       0.28605159      -0.17959725      -2.29209068       0.00000000
Si      -1.36633012       1.89354960       0.13108587       0.00000000
Si      -1.49761123      -1.54276074       0.95918338       0.00000000
Si       2.28229497      -0.03126051       0.68509162       0.00000000
Si       1.69376985      -2.05861617      -2.17953943       0.00000000
Si       1.94621598       1.54162044      -2.41508058       0.00000000
Si       2.62024731      -2.29938237      -0.07830701       0.00000000
Si      -3.29951329      -1.33951041      -0.46436437       0.00000000
Si       2.97059634       1.99159911      -0.34860918       0.00000000
Si      -3.51908620       0.97153560      -0.02704400       0.00000000
