10
Lattice="16.28999089631971 0.0 0.0 0.0 16.28999089631971 0.0 0.0 0.0 34.450931932916035" Properties=species:S:1:pos:R:3:initial_magmoms:R:1 pbc="T T T"
Si       1.02438036       0.44997867       2.06647140       0.00000000
Si      -0.31353363       1.77536565      -1.53175819       0.00000000
Si       1.28019852      -1.91023056      -0.58973138       0.00000000
Si      -1.66016440      -1.72121769       0.12298990       0.00000000
Si      -1.94621598      -1.54162044       2.41508058       0.00000000
Si       0.33607899      -1.57288095       3.10017220       0.00000000
Si      -2.64045329       2.08761237      -1.11293798       0.00000000
Si       3.30908544       0.42653736       1.31399373       0.00000000
Si      -0.25244613      -3.60023661       0.23554115       0.00000000
Si       1.11591387      -2.22542577      -2.87376054       0.00000000
