10
Lattice="16.28999089631971 0.0 0.0 0.0 16.28999089631971 0.0 0.0 0.0 34.450931932916035" Properties=species:S:1:pos:R:3:initial_magmoms:R:1 pbc="T T T"
Si       1.32192112      -1.32831918      -1.46054808       0.00000000
Si      -1.05912695      -1.70756667       1.34837578       0.00000000
Si       0.89120863       1.80933030       1.39326537       0.00000000
Si      -1.42364828       1.36832742      -1.46282184       0.00000000
Si      -0.92084114       3.41743090       1.07135568       0.00000000
Si       2.60283966       2.74261698      -0.08946912       0.00000000
Si       2.71659273      -2.64406248       0.09119167       0.00000000
Si       0.78521612      -3.55131774       1.24050985       0.00000000
Si      -2.72189612      -2.73525390       0.04482069       0.00000000
Si       2.65276851       0.02546127      -2.84227237       0.00000000
