10
Lattice="16.28999089631971 0.0 0.0 0.0 16.28999089631971 0.0 0.0 0.0 34.450931932916035" Properties=species:S:1:pos:R:3:initial_magmoms:R:1 pbc="T T T"
Si      -2.29645084       0.03212388       0.57433181       0.00000000
Si       0.82310764      -2.00438676       1.19951322       0.00000000
Si       0.96968506       1.69151192       1.71297019       0.00000000
Si      -0.29682172       0.27772821      -2.65940673       0.00000000
Si      -0.83588714      -3.54120165       0.48310569       0.00000000
Si      -2.74484938      -2.28964095       0.97530643       0.00000000
Si       0.25910222      -1.46741949       3.45112404       0.00000000
Si       3.05244301       2.29542294       0.77748907       0.00000000
Si       3.19652806      -1.85839578       1.34586086       0.00000000
Si       1.51683358       0.43764714       3.68253107       0.00000000
