10
Lattice="16.28999089631971 0.0 0.0 0.0 16.28999089631971 0.0 0.0 0.0 34.450931932916035" Properties=species:S:1:pos:R:3:initial_magmoms:R:1 pbc="T T T"
Si      -1.65899478      -1.53681489      -0.71640753       0.00000000
Si       2.37342042       0.14599098       0.14634764       0.00000000
Si      -0.56400541       0.53696727       2.25161082       0.00000000
Si      -0.82310764       2.00438676      -1.19951322       0.00000000
Si       0.69372594       2.44203390       2.48301786       0.00000000
Si      -3.56795702      -0.28525419      -0.22420679       0.00000000
Si      -1.55418166      -3.27196053       0.79540356       0.00000000
Si       0.14657742       3.69589868       0.51345698       0.00000000
Si       0.85915089      -3.51096741       0.98157650       0.00000000
Si      -3.11955848       2.03651064      -0.62518141       0.00000000
