10
Lattice="16.28999089631971 0.0 0.0 0.0 16.28999089631971 0.0 0.0 0.0 34.51877397758722" Properties=species:S:1:pos:R:3:initial_magmoms:R:1 pbc="T T T"
Si      -1.50785127      -1.31359302      -1.31221264       0.00000000
Si       1.52862102       1.20588354      -1.41642487       0.00000000
Si      -1.32623406       1.37209041       1.53124677       0.00000000
Si       1.38261375      -1.32444216       1.53621057       0.00000000
Si      -0.09609471      -2.62657191      -2.79006573       0.00000000
Si      -2.74610467       2.67861357       0.11807844       0.00000000
Si      -2.72422557      -2.71597794       0.14682569       0.00000000
Si       2.87039574      -2.56749622       0.19180022       0.00000000
Si       2.76076404       2.71652040      -0.01391107       0.00000000
Si      -2.68165491       0.01883124       2.91445623       0.00000000
