10
Lattice="16.28999089631971 0.0 0.0 0.0 16.28999089631971 0.0 0.0 0.0 34.51877397758722" Properties=species:S:1:pos:R:3:initial_magmoms:R:1 pbc="T T T"
Si       2.14745531      -0.77235777       0.43310730       0.00000000
Si      -0.27694075       0.65685257      -2.22956886       0.00000000
Si      -0.19587585       1.88580275       1.38689608       0.00000000
Si      -1.31051162      -1.93692987       0.41757384       0.00000000
Si       2.12192888      -0.87198741       2.76426496       0.00000000
Si       2.18265800      -2.77216704      -0.91160681       0.00000000
Si      -0.02345923      -3.61507680      -0.70242292       0.00000000
Si      -3.41653169      -1.35819504      -0.43231337       0.00000000
Si       0.75699630       1.17680656       3.43175487       0.00000000
Si      -2.50808726       2.43684458       1.29514512       0.00000000
