10
Lattice="16.28999089631971 0.0 0.0 0.0 16.28999089631971 0.0 0.0 0.0 34.51877397758722" Properties=species:S:1:pos:R:3:initial_magmoms:R:1 pbc="T T T"
Si       1.41415119      -1.20515130       1.35531138       0.00000000
Si      -1.34641737      -1.35738447      -1.34778628       0.00000000
Si       1.36565586       1.36108163      -1.34140031       0.00000000
Si      -1.34081361       1.27365320       1.46860206       0.00000000
Si       0.38923326       2.11856663       2.85466968       0.00000000
Si      -0.04219110      -2.25097242       2.81994378       0.00000000
Si       2.33342847       0.44519267       2.79374401       0.00000000
Si      -2.69643483      -2.70495843       0.02195395       0.00000000
Si      -2.70283680      -0.00081613      -2.70340833       0.00000000
Si      -2.70120780       2.70904655       0.03734933       0.00000000
