10
Lattice="16.28999089631971 0.0 0.0 0.0 16.28999089631971 0.0 0.0 0.0 34.51877397758722" Properties=species:S:1:pos:R:3:initial_magmoms:R:1 pbc="T T T"
Si      -0.15970716      -1.33742270       1.96084005       0.00000000
Si      -1.81644903       0.71616216      -1.48413552       0.00000000
Si       0.61792857       2.31877724       0.75789463       0.00000000
Si       1.09957500      -1.73884088      -1.60056741       0.00000000
Si      -2.29068351      -1.98636743       1.16694233       0.00000000
Si       1.53099936       2.63069816      -1.56584150       0.00000000
Si      -0.19904751       1.78578473      -2.95190913       0.00000000
Si       1.78450434      -2.72766017       1.80667912       0.00000000
Si      -3.34309896       1.82036840      -0.01739747       0.00000000
Si      -1.74161277       3.26011118       1.12210241       0.00000000
