10
Lattice="16.28999089631971 0.0 0.0 0.0 16.28999089631971 0.0 0.0 0.0 34.51877397758722" Properties=species:S:1:pos:R:3:initial_magmoms:R:1 pbc="T T T"
Si       1.34081361      -1.27365320      -1.46860206       0.00000000
Si       1.73004687       0.84491343       1.38606762       0.00000000
Si      -1.61740152      -1.06962258       1.46777361       0.00000000
Si      -1.36039419       1.43539335      -1.43125273       0.00000000
Si       0.19904751      -1.78578473       2.95190913       0.00000000
Si       2.75496480      -2.47880450      -0.11329068       0.00000000
Si      -2.66418063      -2.61219224       0.01467049       0.00000000
Si       2.67256998       2.72049516       0.16941824       0.00000000
Si       0.81697608       0.53299251       3.70980375       0.00000000
Si      -0.00560376      -2.63103767      -2.81638834       0.00000000
