10
Lattice="16.28999089631971 0.0 0.0 0.0 16.28999089631971 0.0 0.0 0.0 34.51877397758722" Properties=species:S:1:pos:R:3:initial_magmoms:R:1 pbc="T T T"
Si       0.91307079       0.31192092      -2.32373613       0.00000000
Si      -0.61792857      -2.31877724      -0.75789463       0.00000000
Si      -2.35954134       0.94133394       0.36420779       0.00000000
Si       0.90214020       0.74515347       2.45470043       0.00000000
Si      -2.43437760      -1.60261509      -2.24203014       0.00000000
Si      -0.81697608      -0.53299251      -3.70980375       0.00000000
Si      -0.90490950       2.06521362       3.15857314       0.00000000
Si      -2.18191518       3.21999543      -0.40027993       0.00000000
Si      -0.77763573      -3.65619995       1.20294543       0.00000000
Si       2.85726600      -1.36145304      -2.38466180       0.00000000
