10
Lattice="16.28999089631971 0.0 0.0 0.0 16.28999089631971 0.0 0.0 0.0 34.51877397758722" Properties=species:S:1:pos:R:3:initial_magmoms:R:1 pbc="T T T"
Si       1.22202693      -1.79305237      -0.76711114       0.00000000
Si       0.39557007       2.30727813       0.06858884       0.00000000
Si      -1.98977463      -0.34577969      -1.25216923       0.00000000
Si       0.06530661      -1.29404080       2.00947703       0.00000000
Si      -3.20144112       1.35222801      -0.14428856       0.00000000
Si      -1.62825066       2.99587272      -0.84132655       0.00000000
Si       3.38239044      -1.11851620      -0.12789213       0.00000000
Si       0.50450130      -3.56893930       1.09124261       0.00000000
Si       3.63271887       1.03154307       0.87874492       0.00000000
Si       1.20479211      -2.00343772      -3.09440270       0.00000000
