10
Lattice="16.28999089631971 0.0 0.0 0.0 16.28999089631971 0.0 0.0 0.0 34.51877397758722" Properties=species:S:1:pos:R:3:initial_magmoms:R:1 pbc="T T T"
Si      -2.02382073       0.68859459      -0.90991539       0.00000000
Si       2.19703230       0.61743987      -0.52226934       0.00000000
Si      -0.39557007      -2.30727813      -0.06858884       0.00000000
Si      -0.04536765       0.78631830       2.28956252       0.00000000
Si      -2.15018226       2.83537224      -0.12947999       0.00000000
Si       3.23714880      -1.27573506       0.81015608       0.00000000
Si       2.02566150       2.98061388      -0.07186813       0.00000000
Si      -3.59701119      -0.95505012      -0.21287740       0.00000000
Si      -2.38534470      -2.65305782      -1.32075807       0.00000000
Si       0.90324792      -1.05585264       3.60638545       0.00000000
