10
Lattice="16.28999089631971 0.0 0.0 0.0 16.28999089631971 0.0 0.0 0.0 34.51877397758722" Properties=species:S:1:pos:R:3:initial_magmoms:R:1 pbc="T T T"
Si      -1.23214302      -1.51063686      -1.40251380       0.00000000
Si       1.32874272      -1.32577794       1.55913105       0.00000000
Si      -1.37034738       1.38189699       1.53134342       0.00000000
Si       1.37011932       1.52111133      -1.58926047       0.00000000
Si       2.29684113      -0.46568223      -2.54211724       0.00000000
Si      -2.34981621       0.10057446      -2.75005845       0.00000000
Si       0.78460785      -2.49351030      -2.52295931       0.00000000
Si       2.69213427      -2.73325023       0.26887378       0.00000000
Si       2.80663668       2.65443921       0.14532067       0.00000000
Si      -2.76076404      -2.71652040       0.01391107       0.00000000
