10
Lattice="16.28999089631971 0.0 0.0 0.0 16.28999089631971 0.0 0.0 0.0 34.51877397758722" Properties=species:S:1:pos:R:3:initial_magmoms:R:1 pbc="T T T"
Si      -1.93214224      -1.08042678       0.72375554       0.00000000
Si       1.02146445       1.05436862       1.91972817       0.00000000
Si       1.20386358      -1.91323674      -0.97688185       0.00000000
Si       0.15144813       1.89349910      -2.16122165       0.00000000
Si       3.33483993      -1.26429201      -0.18298412       0.00000000
Si       3.09672900      -0.17233517       1.92790912       0.00000000
Si      -1.54457056      -1.96927434       2.87434540       0.00000000
Si       1.21262760       3.36435578       1.34461055       0.00000000
Si       1.75293432       3.33324188      -1.02172176       0.00000000
Si      -3.91408694       0.22537378       0.57870757       0.00000000
