10
Lattice="16.28999089631971 0.0 0.0 0.0 16.28999089631971 0.0 0.0 0.0 34.51877397758722" Properties=species:S:1:pos:R:3:initial_magmoms:R:1 pbc="T T T"
Si      -1.99493856      -1.09276578      -0.42803304       0.00000000
Si      -0.41676336       0.80723466       2.14724154       0.00000000
Si       1.80704970      -1.32006015      -0.70387271       0.00000000
Si       0.52887114       2.09530125      -1.00466948       0.00000000
Si      -1.45463184      -1.12387968      -2.79436535       0.00000000
Si      -2.26569465       2.06014743       1.40577786       0.00000000
Si       1.70753409       1.79771553       2.32539303       0.00000000
Si       2.49828327       2.37521232       0.14301136       0.00000000
Si      -1.25291277       3.37660749      -0.27525286       0.00000000
Si       3.46527396       0.46358082      -0.96366115       0.00000000
