10
Lattice="16.28999089631971 0.0 0.0 0.0 16.28999089631971 0.0 0.0 0.0 34.51877397758722" Properties=species:S:1:pos:R:3:initial_magmoms:R:1 pbc="T T T"
Si       0.41676336      -0.80723466      -2.14724154       0.00000000
Si       2.12429745       0.99048087       0.17815149       0.00000000
Si      -1.84893129       1.25291277      -0.74146368       0.00000000
Si       0.08195499      -1.93417686       1.35165239       0.00000000
Si       3.23687187      -1.08994761       0.68913319       0.00000000
Si       0.94563450       1.28806659      -3.15191101       0.00000000
Si       1.08732492      -0.88441668       3.25318915       0.00000000
Si      -1.57817520      -1.90000044      -2.57527457       0.00000000
Si       1.54114803       2.83644738       1.57737078       0.00000000
Si      -0.83614941       2.56937283      -2.42249439       0.00000000
