10
Lattice="16.28999089631971 0.0 0.0 0.0 16.28999089631971 0.0 0.0 0.0 34.51877397758722" Properties=species:S:1:pos:R:3:initial_magmoms:R:1 pbc="T T T"
Si      -1.35242838       1.35720135      -1.36117957       0.00000000
Si      -1.35076680      -1.35957969       1.36804881       0.00000000
Si       1.36137159      -1.35858600      -1.36035112       0.00000000
Si       1.36448298       1.36777356       1.35910845       0.00000000
Si       0.05590728      -2.70676269       2.69798888       0.00000000
Si      -2.71081890      -0.00133578      -2.71742296       0.00000000
Si      -2.71301805      -2.71547784       0.00269247       0.00000000
Si      -2.71529865       2.71498914      -0.00348640       0.00000000
Si       2.71495656       2.71549413      -0.00331380       0.00000000
Si       0.00395847       2.71409319      -2.71828593       0.00000000
