10
Lattice="16.28999089631971 0.0 0.0 0.0 16.28999089631971 0.0 0.0 0.0 34.51877397758722" Properties=species:S:1:pos:R:3:initial_magmoms:R:1 pbc="T T T"
Si       1.32260139      -1.39201308      -1.32555618       0.00000000
Si       0.97959915       1.71030339       1.28213154       0.00000000
Si      -1.40667408       1.34718300      -1.32994007       0.00000000
Si      -1.68096510      -1.19609325       1.17180948       0.00000000
Si       2.46487248       0.59196231       2.75912166       0.00000000
Si       2.66483223      -0.00996948      -2.70012905       0.00000000
Si       0.45392085      -0.21383883       3.76348047       0.00000000
Si      -0.05590728       2.70676269      -2.69798888       0.00000000
Si      -0.05383845      -2.72174949      -2.69674621       0.00000000
Si       2.62601316      -2.80319949       0.28153528       0.00000000
