10
Lattice="16.28999089631971 0.0 0.0 0.0 16.28999089631971 0.0 0.0 0.0 34.51877397758722" Properties=species:S:1:pos:R:3:initial_magmoms:R:1 pbc="T T T"
Si       1.33696917       1.34043894       1.38823886       0.00000000
Si      -1.37678193      -1.37357280       1.38054117       0.00000000
Si      -1.21171536       1.51239618      -1.44062803       0.00000000
Si       1.37769417      -1.29127572      -1.60815809       0.00000000
Si      -2.19370914      -0.14815755      -2.81178150       0.00000000
Si      -0.59380308      -2.07311427      -2.94782007       0.00000000
Si       2.69275329       2.68235442       0.01280302       0.00000000
Si       2.69746110      -2.73017142      -0.01565772       0.00000000
Si      -2.73344571       2.70529659       0.00938221       0.00000000
Si       2.69680950      -0.01255959       2.74313601       0.00000000
