10
Lattice="16.28999089631971 0.0 0.0 0.0 16.28999089631971 0.0 0.0 0.0 34.51877397758722" Properties=species:S:1:pos:R:3:initial_magmoms:R:1 pbc="T T T"
Si      -1.70209323      -0.87902469       1.35075490       0.00000000
Si      -1.30683267       1.40335092      -1.40080715       0.00000000
Si       1.76673195       0.95617413       1.28258028       0.00000000
Si       1.38741930      -1.32923142      -1.42403830       0.00000000
Si      -2.62137051      -2.52936866      -0.08767773       0.00000000
Si      -0.74492541      -2.85259796       2.32073299       0.00000000
Si       2.65497678      -2.69188082       0.00735250       0.00000000
Si       3.45059667      -0.87941565       1.31703004       0.00000000
Si      -2.70376533       2.66993100       0.19503118       0.00000000
Si      -2.66986584       0.03686427      -2.78438942       0.00000000
