10
Lattice="16.28999089631971 0.0 0.0 0.0 16.28999089631971 0.0 0.0 0.0 34.51877397758722" Properties=species:S:1:pos:R:3:initial_magmoms:R:1 pbc="T T T"
Si       0.44924562       1.47698172      -1.77581932       0.00000000
Si      -1.29828042      -1.64563812      -1.16966931       0.00000000
Si       2.24617923      -0.78796033       0.35675173       0.00000000
Si      -1.34760654       1.15738821       1.69204221       0.00000000
Si      -3.32332290      -0.84410545      -0.29841497       0.00000000
Si       2.70949941       1.89843660      -1.52559259       0.00000000
Si      -3.03481071      -0.45473209       1.98862768       0.00000000
Si       3.32386047      -0.35166038      -1.74437270       0.00000000
Si       0.32563710       0.18870336      -3.81698460       0.00000000
Si       3.34190979       0.65754585       1.93225849       0.00000000
