10
Lattice="16.28999089631971 0.0 0.0 0.0 16.28999089631971 0.0 0.0 0.0 34.51877397758722" Properties=species:S:1:pos:R:3:initial_magmoms:R:1 pbc="T T T"
Si      -1.62359172      -0.94833538       1.41184768       0.00000000
Si       0.95891085       1.60243101       1.47501017       0.00000000
Si      -0.94861557       1.84217094      -1.31682293       0.00000000
Si       1.86670368      -2.02385983       0.02685562       0.00000000
Si      -1.23351138      -2.54546630      -1.66549726       0.00000000
Si       2.33173431       0.28197990       2.78634115       0.00000000
Si       2.33390088      -0.21988242      -2.79622937       0.00000000
Si      -2.97918036      -2.11094128      -0.12192038       0.00000000
Si       2.31361983       2.83395501      -0.03168825       0.00000000
Si      -0.39438090      -2.45028967       2.76296848       0.00000000
