10
Lattice="16.28999089631971 0.0 0.0 0.0 16.28999089631971 0.0 0.0 0.0 34.51877397758722" Properties=species:S:1:pos:R:3:initial_magmoms:R:1 pbc="T T T"
Si       1.35681039       1.35690813      -1.35696828       0.00000000
Si      -1.35695700       1.35651717       1.35886682       0.00000000
Si      -1.35863487      -1.35806472      -1.35693376       0.00000000
Si       1.35514881      -1.35920502       1.36145573       0.00000000
Si       0.00628794       2.69931816       2.72912483       0.00000000
Si       2.71391400      -0.00052128      -2.71490309       0.00000000
Si      -0.00030951       2.71420722      -2.71469598       0.00000000
Si       2.71450044       2.71463076       0.00017259       0.00000000
Si      -0.00130320      -2.71595025      -2.71448887       0.00000000
Si      -2.71601541      -0.00076563      -2.71493761       0.00000000
