10
Lattice="16.28999089631971 0.0 0.0 0.0 16.28999089631971 0.0 0.0 0.0 34.51877397758722" Properties=species:S:1:pos:R:3:initial_magmoms:R:1 pbc="T T T"
Si       1.35399222       1.34408790      -1.38323708       0.00000000
Si      -1.36303317      -1.36648665      -1.38358227       0.00000000
Si       1.30683267      -1.40335092       1.40080715       0.00000000
Si      -1.39693266       1.26658008       1.59583833       0.00000000
Si      -0.39526056      -2.28237561       2.75156205       0.00000000
Si      -2.33945577      -0.60900165       2.81248772       0.00000000
Si      -2.70034443       2.67776649      -0.01125313       0.00000000
Si       2.69972541       2.72269431       0.00455648       0.00000000
Si       2.69425197      -2.73258234      -0.02323115       0.00000000
Si      -0.00115659       2.70329292      -2.74469281       0.00000000
