10
Lattice="16.28999089631971 0.0 0.0 0.0 16.28999089631971 0.0 0.0 0.0 34.51877397758722" Properties=species:S:1:pos:R:3:initial_magmoms:R:1 pbc="T T T"
Si      -1.35514881       1.35920502      -1.36145573       0.00000000
Si       1.35905841      -1.35754344      -1.36176639       0.00000000
Si      -1.35399222      -1.34408790       1.38323708       0.00000000
Si       1.34573319       1.37860641       1.38779356       0.00000000
Si      -2.71702539      -2.71057455      -0.00034519       0.00000000
Si       2.71655298      -2.71106325      -0.00117364       0.00000000
Si      -2.71210581       2.71572219      -0.00258891       0.00000000
Si      -2.71378368       0.00114030      -2.71838949       0.00000000
Si       0.00122175      -2.71406061      -2.71904535       0.00000000
Si       2.71948518       2.71494027      -0.00258891       0.00000000
