10
Lattice="16.28999089631971 0.0 0.0 0.0 16.28999089631971 0.0 0.0 0.0 34.51877397758722" Properties=species:S:1:pos:R:3:initial_magmoms:R:1 pbc="T T T"
Si       2.19269916       0.35249931      -0.69144595       0.00000000
Si       0.19523565      -0.08475687       2.32563466       0.00000000
Si      -1.24729272      -2.05706862      -0.10621433       0.00000000
Si      -1.11257442       2.08042848      -0.51098170       0.00000000
Si      -3.15491688      -0.84422925       0.66251920       0.00000000
Si      -2.14954695       0.20553093       2.56405596       0.00000000
Si       2.39744817       2.41295625       0.50473380       0.00000000
Si      -3.23687187       1.08994761      -0.68913319       0.00000000
Si       1.57136598       1.79369190       2.63312807       0.00000000
Si       3.10664961      -1.78329888      -0.41805711       0.00000000
