10
Lattice="16.28999089631971 0.0 0.0 0.0 16.28999089631971 0.0 0.0 0.0 34.51877397758722" Properties=species:S:1:pos:R:3:initial_magmoms:R:1 pbc="T T T"
Si       1.92067245       0.36566163      -1.26463051       0.00000000
Si      -0.63482130       1.73693754       1.47554034       0.00000000
Si      -0.60732378      -2.20947786       0.65081733       0.00000000
Si      -1.69028298       0.86899005      -1.53625889       0.00000000
Si       1.51562160      -0.61131483       2.48300584       0.00000000
Si      -2.21288247       2.67050115      -0.10334927       0.00000000
Si      -1.59901011      -1.76484231       2.77928064       0.00000000
Si      -3.06641331      -1.00945872      -1.84375230       0.00000000
Si      -1.77038091       0.59833170       3.22968185       0.00000000
Si       1.32914997       1.84813308      -2.99312456       0.00000000
