10
Lattice="16.28999089631971 0.0 0.0 0.0 16.28999089631971 0.0 0.0 0.0 34.51877397758722" Properties=species:S:1:pos:R:3:initial_magmoms:R:1 pbc="T T T"
Si       1.26695475      -1.30877118       1.43660659       0.00000000
Si       1.75754439       1.02807819      -1.14442503       0.00000000
Si      -1.46308635       1.43705493       1.38305068       0.00000000
Si      -1.43651736      -1.13332788      -1.73458114       0.00000000
Si       2.63933838      -2.54668086      -0.06242724       0.00000000
Si       0.77051700       2.34215991      -2.89247954       0.00000000
Si       2.60879463       0.08118936       2.78435835       0.00000000
Si      -0.10586871      -2.63578716       2.78515229       0.00000000
Si      -2.80663668      -2.65443921      -0.14532067       0.00000000
Si       3.55012857      -0.62929899      -1.52187633       0.00000000
