10
Lattice="16.28999089631971 0.0 0.0 0.0 16.28999089631971 0.0 0.0 0.0 34.51877397758722" Properties=species:S:1:pos:R:3:initial_magmoms:R:1 pbc="T T T"
Si      -1.39600413       1.30399821      -1.32672982       0.00000000
Si       1.32349734      -1.43770653      -1.31772041       0.00000000
Si       1.27887903       1.21041216       1.63408515       0.00000000
Si      -1.72498068      -1.06023465       1.29428215       0.00000000
Si      -0.23970735      -2.17857573       2.77127228       0.00000000
Si       2.59151094       2.64085335       0.13089526       0.00000000
Si       2.55264300      -2.72878677       0.32647875       0.00000000
Si      -0.04553055       2.65171878      -2.68915207       0.00000000
Si       2.67688683      -0.06563241      -2.68694287       0.00000000
Si       3.41482383      -0.77033781       1.48082171       0.00000000
