10
Lattice="16.28999089631971 0.0 0.0 0.0 16.28999089631971 0.0 0.0 0.0 34.51877397758722" Properties=species:S:1:pos:R:3:initial_magmoms:R:1 pbc="T T T"
Si      -1.35984033       1.35299853      -1.35489715       0.00000000
Si       1.35669636       1.35479043       1.35772770       0.00000000
Si      -1.35839052      -1.36019871       1.35727895       0.00000000
Si       1.35622395      -1.36280511      -1.36173188       0.00000000
Si      -0.00405621       2.69491401      -2.73033299       0.00000000
Si      -2.71487511       2.71112033       0.00117364       0.00000000
Si       2.71412577       2.71248048       0.00062134       0.00000000
Si      -0.00102627       2.71258335       2.71455790       0.00000000
Si       2.71453302      -0.00307881       2.71462694       0.00000000
Si      -2.71609686      -0.00229689       2.71500665       0.00000000
