10
Lattice="16.28999089631971 0.0 0.0 0.0 16.28999089631971 0.0 0.0 0.0 34.51877397758722" Properties=species:S:1:pos:R:3:initial_magmoms:R:1 pbc="T T T"
Si      -1.35629725      -1.35609363       1.35762414       0.00000000
Si      -1.35738868       1.35733167      -1.35752058       0.00000000
Si       1.35759231      -1.35731538      -1.35772770       0.00000000
Si       1.35824391       1.35896067       1.35669213       0.00000000
Si      -2.71380399       0.00000000      -2.71531732       0.00000000
Si       0.00043983       2.71490769      -2.71431627       0.00000000
Si      -2.71493635       2.71428867       0.00031067       0.00000000
Si      -2.71501984      -2.71438641       0.00020711       0.00000000
Si       0.00078192      -2.71484253      -2.71476502       0.00000000
Si       2.71551042      -0.00003258      -2.71421271       0.00000000
