10
Lattice="16.28999089631971 0.0 0.0 0.0 16.28999089631971 0.0 0.0 0.0 34.51877397758722" Properties=species:S:1:pos:R:3:initial_magmoms:R:1 pbc="T T T"
Si      -0.90898200       0.24322599      -2.15518086       0.00000000
Si       1.77894945       1.52862102       0.26541500       0.00000000
Si      -1.46267910       0.91654056       1.66014684       0.00000000
Si       0.57231657      -2.33256510       0.06158153       0.00000000
Si       0.04606812       0.62793063       3.43748499       0.00000000
Si       0.72167958       1.76270832      -2.97783274       0.00000000
Si       1.90648386       1.78528626       2.62004545       0.00000000
Si      -2.78040978       1.62313560      -1.85124288       0.00000000
Si      -1.23729066      -2.10372318      -2.83029942       0.00000000
Si       3.63526011       0.57045951      -0.79762576       0.00000000
