10
Lattice="16.28999089631971 0.0 0.0 0.0 16.28999089631971 0.0 0.0 0.0 34.51877397758722" Properties=species:S:1:pos:R:3:initial_magmoms:R:1 pbc="T T T"
Si       0.01723482       0.21038535       2.32729156       0.00000000
Si      -0.65223531       2.05328349      -0.96155551       0.00000000
Si      -1.84252932      -1.49993433      -0.08056686       0.00000000
Si       2.29056948      -0.72296649       0.04584096       0.00000000
Si      -0.71058609      -3.53681964       0.38640337       0.00000000
Si      -0.94074750       1.66391014      -3.24859815       0.00000000
Si       2.17759833       0.88492153       2.96651057       0.00000000
Si      -2.40583752      -1.86057864      -2.34434384       0.00000000
Si      -2.92457628       2.49061787      -0.36255089       0.00000000
Si      -1.20479211       2.00343772       3.09440270       0.00000000
