10
Lattice="16.28999089631971 0.0 0.0 0.0 16.28999089631971 0.0 0.0 0.0 34.51877397758722" Properties=species:S:1:pos:R:3:initial_magmoms:R:1 pbc="T T T"
Si      -1.35316611       1.35158130      -1.35779673       0.00000000
Si       1.36424928      -1.35951453      -1.35665761       0.00000000
Si      -1.35699426      -1.36303317       1.36042016       0.00000000
Si       1.35727716       1.36291914       1.37277789       0.00000000
Si       2.52355157      -0.13488120       2.74907670       0.00000000
Si      -2.70611577       2.71042794       0.00186401       0.00000000
Si      -2.70890136      -0.00368154      -2.71466146       0.00000000
Si      -2.70904797      -2.71557558       0.00327929       0.00000000
Si       0.00561018       2.71086777      -2.71397108       0.00000000
Si       2.71852658       2.71246419       0.00669665       0.00000000
