10
Lattice="16.28999089631971 0.0 0.0 0.0 16.28999089631971 0.0 0.0 0.0 34.51877397758722" Properties=species:S:1:pos:R:3:initial_magmoms:R:1 pbc="T T T"
Si      -1.77303618       1.63776565      -0.14397789       0.00000000
Si       1.59215202       0.76030806      -1.71506624       0.00000000
Si       0.20725767      -1.94509672       1.52317627       0.00000000
Si       1.22518719       1.09740191       1.92863402       0.00000000
Si      -0.85001220      -1.71100942      -1.72007147       0.00000000
Si       2.06356833      -2.90325823       0.46013551       0.00000000
Si       1.32242220       3.11587138      -1.59635611       0.00000000
Si      -3.77569620       0.35664349       0.19575608       0.00000000
Si       1.02260475      -3.23617696      -1.70940516       0.00000000
Si      -1.64942766       2.92604401       1.89718740       0.00000000
