10
Lattice="16.28999089631971 0.0 0.0 0.0 16.28999089631971 0.0 0.0 0.0 34.51877397758722" Properties=species:S:1:pos:R:3:initial_magmoms:R:1 pbc="T T T"
Si       2.31221142      -0.55104183       0.09175095       0.00000000
Si       0.10736739       1.96247259      -1.35551849       0.00000000
Si      -1.09573056      -1.44550618      -1.57550676       0.00000000
Si      -1.45407798      -0.11380194       1.91927942       0.00000000
Si      -0.63241038       1.24089075      -3.45785108       0.00000000
Si       2.50808726      -2.43684458      -1.29514512       0.00000000
Si      -0.01804932      -1.00920623      -3.67663119       0.00000000
Si      -1.95664077      -2.44353977       2.23792241       0.00000000
Si      -3.34498860       1.31795874       1.53018359       0.00000000
Si      -3.34190979      -0.65754585      -1.93225849       0.00000000
