10
Lattice="16.28999089631971 0.0 0.0 0.0 16.28999089631971 0.0 0.0 0.0 34.51877397758722" Properties=species:S:1:pos:R:3:initial_magmoms:R:1 pbc="T T T"
Si      -1.34765541      -1.35907470      -1.35099308       0.00000000
Si      -1.35606105       1.35435060       1.35731347       0.00000000
Si       1.35840681      -1.35848826       1.35638146       0.00000000
Si       1.34741106       1.37443617      -1.36575677       0.00000000
Si       2.61982296      -0.04935870      -2.68498220       0.00000000
Si      -2.72047887      -0.03862359      -2.66232406       0.00000000
Si      -2.71184517       2.71327869      -0.00072489       0.00000000
Si      -2.70780525      -2.71878308      -0.00438389       0.00000000
Si       0.00184077       2.71357191       2.71334974       0.00000000
Si      -2.71337643      -0.00185706       2.71376397       0.00000000
