10
Lattice="16.28999089631971 0.0 0.0 0.0 16.28999089631971 0.0 0.0 0.0 34.51877397758722" Properties=species:S:1:pos:R:3:initial_magmoms:R:1 pbc="T T T"
Si      -1.37238363       1.23790968       1.49903383       0.00000000
Si       1.31404914      -1.42794882       1.48254765       0.00000000
Si      -1.39913181      -1.60948458      -1.32071807       0.00000000
Si       0.91079019       1.91738187      -1.45944910       0.00000000
Si      -2.63933838       2.54668086       0.06242724       0.00000000
Si      -0.88179399       3.57475905      -1.08199779       0.00000000
Si       2.58646104      -2.85174369       0.16332222       0.00000000
Si       2.72886822       2.72714148      -0.07962795       0.00000000
Si      -0.03054375       2.62787022       2.84678559       0.00000000
Si       2.68190415      -0.08985564       2.84374794       0.00000000
