10
Lattice="16.28999089631971 0.0 0.0 0.0 16.28999089631971 0.0 0.0 0.0 34.51877397758722" Properties=species:S:1:pos:R:3:initial_magmoms:R:1 pbc="T T T"
Si       1.35573525       1.35526284       1.35686473       0.00000000
Si       1.35764118      -1.35742941      -1.35696828       0.00000000
Si      -1.35793440       1.35785295      -1.35724443       0.00000000
Si      -1.35764118      -1.35837423       1.35734799       0.00000000
Si       2.70890136       0.00368154       2.71466146       0.00000000
Si      -0.00136836      -2.71420722      -2.71421271       0.00000000
Si       2.71442806      -2.71412577       0.00058682       0.00000000
Si       2.71451154       2.71454931       0.00069038       0.00000000
Si      -2.71583622      -0.00136836      -2.71328071       0.00000000
Si      -0.00053757       2.71497285      -2.71452338       0.00000000
