10
Lattice="16.28999089631971 0.0 0.0 0.0 16.28999089631971 0.0 0.0 0.0 34.51877397758722" Properties=species:S:1:pos:R:3:initial_magmoms:R:1 pbc="T T T"
Si       1.31960403      -1.37134107      -1.39428310       0.00000000
Si      -1.40326947       1.36578618      -1.36245677       0.00000000
Si       1.83241323       0.73924020       1.38499754       0.00000000
Si      -1.02943026      -1.80408492       1.31637418       0.00000000
Si       0.23239314       0.24568578       3.24079691       0.00000000
Si       2.53068408      -2.78081703       0.06455014       0.00000000
Si       2.67659829      -0.00830790      -2.75470326       0.00000000
Si      -0.02951748       2.70212004      -2.75283924       0.00000000
Si      -0.03244968      -2.72388348      -2.75142397       0.00000000
Si      -2.74900266      -0.01282023      -2.75025033       0.00000000
