10
Lattice="16.28999089631971 0.0 0.0 0.0 16.28999089631971 0.0 0.0 0.0 34.51877397758722" Properties=species:S:1:pos:R:3:initial_magmoms:R:1 pbc="T T T"
Si       0.22581198      -2.30086476       0.59109982       0.00000000
Si       1.88961754      -0.31043853      -1.48417004       0.00000000
Si       0.13981707       1.11099429       2.16091098       0.00000000
Si      -2.13128586       0.67699611      -0.99137974       0.00000000
Si       1.11369843      -2.10849615      -2.78949820       0.00000000
Si      -3.48338844      -1.21951827      -0.41118787       0.00000000
Si       3.54617729      -1.12834314       0.05398739       0.00000000
Si      -0.20606850      -3.45872538      -1.39411050       0.00000000
Si       2.38907741      -2.54397672       1.53373902       0.00000000
Si      -2.32015212       3.07376010      -0.68789051       0.00000000
