10
Lattice="16.28999089631971 0.0 0.0 0.0 16.28999089631971 0.0 0.0 0.0 34.51877397758722" Properties=species:S:1:pos:R:3:initial_magmoms:R:1 pbc="T T T"
Si       1.35716877      -1.35698958      -1.35748606       0.00000000
Si      -1.35738054       1.35690813      -1.35738251       0.00000000
Si      -1.35747828      -1.35694071       1.35748606       0.00000000
Si       1.35659862       1.35744570       1.35814192       0.00000000
Si       2.71381807       0.00029322      -2.71386753       0.00000000
Si      -2.71230129      -0.00017919       2.71721585       0.00000000
Si      -2.71508688       0.00055386      -2.71445435       0.00000000
Si       2.71438122      -2.71539639       0.00034519       0.00000000
Si      -2.71516833      -2.71466334       0.00034519       0.00000000
Si       2.71493281       2.71490769       0.00020711       0.00000000
