10
Lattice="16.28999089631971 0.0 0.0 0.0 16.28999089631971 0.0 0.0 0.0 34.51877397758722" Properties=species:S:1:pos:R:3:initial_magmoms:R:1 pbc="T T T"
Si      -1.35664749       1.35716877       1.35803836       0.00000000
Si      -1.35659862      -1.35744570      -1.35814192       0.00000000
Si       1.35833419       1.35746199      -1.35793481       0.00000000
Si       1.35865281      -1.35534429       1.36052372       0.00000000
Si      -2.71407690      -2.71438641      -0.00065586       0.00000000
Si      -2.71397916      -0.00053757      -2.71552443       0.00000000
Si       0.00057015      -2.71443528      -2.71562799       0.00000000
Si       2.71544267       2.71480995      -0.00093201       0.00000000
Si      -2.71575477       2.71474479      -0.00189853       0.00000000
Si       2.71421115      -2.71630863      -0.00103556       0.00000000
