10
Lattice="16.28999089631971 0.0 0.0 0.0 16.28999089631971 0.0 0.0 0.0 34.51877397758722" Properties=species:S:1:pos:R:3:initial_magmoms:R:1 pbc="T T T"
Si      -1.34094393      -1.35539316      -1.36452099       0.00000000
Si       1.35552529      -1.35239580       1.35966075       0.00000000
Si      -1.35847197       1.36233270       1.35841807       0.00000000
Si       1.35924835       1.37938833      -1.37437611       0.00000000
Si      -2.59388928       0.02055798      -2.78376118       0.00000000
Si       2.71173344      -2.70637173      -0.00210565       0.00000000
Si      -2.71538010      -2.70809847       0.00107008       0.00000000
Si      -0.00112401      -2.70967860       2.71604221       0.00000000
Si       2.71385766       0.00474039       2.71604221       0.00000000
Si       2.71307899       2.71857294       0.00024163       0.00000000
