10
Lattice="16.28999089631971 0.0 0.0 0.0 16.28999089631971 0.0 0.0 0.0 34.51877397758722" Properties=species:S:1:pos:R:3:initial_magmoms:R:1 pbc="T T T"
Si      -1.36824597      -1.33641531       1.36639191       0.00000000
Si       1.35664749      -1.35716877      -1.35803836       0.00000000
Si      -1.35910728       1.35757602      -1.35993690       0.00000000
Si       1.35861858       1.35132066       1.39373080       0.00000000
Si      -2.71225242      -2.71479366       0.00103556       0.00000000
Si       2.71530030      -2.71251306       0.00248535       0.00000000
Si      -2.71407690       2.71647571      -0.00131171       0.00000000
Si       0.00004887      -2.71461447      -2.71618029       0.00000000
Si       2.71498168       0.00029322      -2.71597317       0.00000000
Si       2.71726974       2.71388009       0.00331380       0.00000000
