10
Lattice="16.28999089631971 0.0 0.0 0.0 16.28999089631971 0.0 0.0 0.0 34.51877397758722" Properties=species:S:1:pos:R:3:initial_magmoms:R:1 pbc="T T T"
Si      -1.26755748       1.36264940      -1.43139080       0.00000000
Si       0.79561989       1.81246517       1.30967754       0.00000000
Si      -1.39585752      -1.31171967       1.41364814       0.00000000
Si       1.46758239      -1.35395964      -1.40025485       0.00000000
Si       0.75034998       0.50042621       3.36465034       0.00000000
Si       2.67186951       2.67132284       0.02340374       0.00000000
Si      -2.65497678       2.69188082      -0.00735250       0.00000000
Si      -2.68866450      -2.71358820       0.02488805       0.00000000
Si      -2.60511309       0.01119541      -2.79529736       0.00000000
Si       0.10896381      -2.70528030      -2.79398565       0.00000000
