10
Lattice="16.28999089631971 0.0 0.0 0.0 16.28999089631971 0.0 0.0 0.0 34.51877397758722" Properties=species:S:1:pos:R:3:initial_magmoms:R:1 pbc="T T T"
Si      -1.86041574      -1.15735563       0.81743954       0.00000000
Si       2.10602007      -0.57873483       0.84988721       0.00000000
Si      -0.18728613       2.34953343       0.15195173       0.00000000
Si      -0.12753441      -0.25666524      -2.35463045       0.00000000
Si       0.89039511       2.78583339      -1.94917270       0.00000000
Si      -3.36916296      -0.86874570      -0.95989860       0.00000000
Si      -1.90648386      -1.78528626      -2.62004545       0.00000000
Si       3.41653169       1.35819504       0.43231337       0.00000000
Si      -2.52547128      -0.09348831       2.79122414       0.00000000
Si       2.04872814      -1.19480634       3.14241835       0.00000000
