10
Lattice="16.28999089631971 0.0 0.0 0.0 16.28999089631971 0.0 0.0 0.0 34.51877397758722" Properties=species:S:1:pos:R:3:initial_magmoms:R:1 pbc="T T T"
Si       1.99493856       1.09276578       0.42803304       0.00000000
Si      -0.19116315      -2.30998716       0.57511761       0.00000000
Si      -1.64419857       1.54696356       0.80090504       0.00000000
Si       0.54030672      -0.03111390      -2.36633232       0.00000000
Si      -1.59969429      -1.94325039       2.48804558       0.00000000
Si       1.57817520       1.90000044       2.57527457       0.00000000
Si      -2.80129845       0.13132998       2.28065667       0.00000000
Si      -0.27075609       3.15291321       1.83381089       0.00000000
Si       3.80198826      -0.22729437      -0.27583968       0.00000000
Si      -1.21262760      -3.36435578      -1.34461055       0.00000000
