10
Lattice="16.28999089631971 0.0 0.0 0.0 16.28999089631971 0.0 0.0 0.0 34.51877397758722" Properties=species:S:1:pos:R:3:initial_magmoms:R:1 pbc="T T T"
Si      -1.15404061      -0.92175336      -1.86059748       0.00000000
Si       2.30698980      -0.56237967      -0.16876238       0.00000000
Si      -0.74860695      -1.36721970       1.80602326       0.00000000
Si      -0.22858128       2.38280346       0.38768057       0.00000000
Si       2.86731693      -0.35034903       2.09491104       0.00000000
Si       1.29412647      -1.99399374       2.79194904       0.00000000
Si      -2.02021738      -0.03575655       3.22654064       0.00000000
Si       0.73748088       2.81377170       2.47913973       0.00000000
Si       3.27598416       0.62416764      -1.90205455       0.00000000
Si       0.41011704      -1.84647150      -3.38173714       0.00000000
