10
Lattice="16.28999089631971 0.0 0.0 0.0 16.28999089631971 0.0 0.0 0.0 34.51877397758722" Properties=species:S:1:pos:R:3:initial_magmoms:R:1 pbc="T T T"
Si       1.35721764       1.35788553       1.35655406       0.00000000
Si      -1.35782851      -1.35757602       1.35679569       0.00000000
Si       1.35716877      -1.35555606      -1.36249129       0.00000000
Si      -1.35973119       1.36109466      -1.36135217       0.00000000
Si      -2.71424382      -2.71490769      -0.00100105       0.00000000
Si      -0.00043983      -2.71490769       2.71431627       0.00000000
Si       2.71489140      -0.00009774       2.71438531       0.00000000
Si      -2.71537618      -0.00061902       2.71462694       0.00000000
Si       2.71507059      -2.71494027       0.00010356       0.00000000
Si      -0.00026064       2.71511946       2.71517924       0.00000000
