10
Lattice="16.28999089631971 0.0 0.0 0.0 16.28999089631971 0.0 0.0 0.0 34.51877397758722" Properties=species:S:1:pos:R:3:initial_magmoms:R:1 pbc="T T T"
Si      -1.35734633       1.35708732      -1.35838355       0.00000000
Si       1.35839052       1.35853713       1.35624339       0.00000000
Si       1.35747828      -1.35723393      -1.35862518       0.00000000
Si      -1.35868700      -1.35920502       1.35620887       0.00000000
Si       2.71081890       0.00133578       2.71742296       0.00000000
Si      -2.71456395       2.71456560      -0.00069038       0.00000000
Si       2.71477737       2.71542897      -0.00086297       0.00000000
Si      -0.00447975       2.71632492       2.71393656       0.00000000
Si       0.00026064      -2.71511946      -2.71517924       0.00000000
Si       2.71515204      -2.71521720      -0.00079393       0.00000000
