10
Lattice="16.28999089631971 0.0 0.0 0.0 16.28999089631971 0.0 0.0 0.0 34.51877397758722" Properties=species:S:1:pos:R:3:initial_magmoms:R:1 pbc="T T T"
Si      -1.35865281       1.35534429      -1.36052372       0.00000000
Si       1.35555834      -1.36096434      -1.36155928       0.00000000
Si       1.37747328       1.34517933       1.37388249       0.00000000
Si      -1.36489188      -1.37453391       1.38406553       0.00000000
Si      -0.05449170       2.49505785       2.84414145       0.00000000
Si       2.70976559       2.71456560      -0.00383159       0.00000000
Si      -2.71530030       2.71251306      -0.00248535       0.00000000
Si       2.71204619      -2.71590138       0.00234728       0.00000000
Si      -2.71259616      -2.71793763      -0.00248535       0.00000000
Si      -0.00031861       2.71280628      -2.71845853       0.00000000
