10
Lattice="16.28999089631971 0.0 0.0 0.0 16.28999089631971 0.0 0.0 0.0 34.51877397758722" Properties=species:S:1:pos:R:3:initial_magmoms:R:1 pbc="T T T"
Si       1.79968662      -1.48224339       0.41025586       0.00000000
Si      -0.15152958       1.87685235       1.45117007       0.00000000
Si       0.15348438       0.61993224      -2.32038780       0.00000000
Si      -1.79576073      -1.49560119       0.58788957       0.00000000
Si      -0.51333048      -2.89571040       2.19615467       0.00000000
Si       1.66475655      -1.99454760       2.69605583       0.00000000
Si       2.08798704       2.81398347       1.40636468       0.00000000
Si       1.15082334      -3.59807004      -0.45071188       0.00000000
Si      -2.34840061       2.88891747       0.92624278       0.00000000
Si      -2.98355327      -1.85997591      -1.55973167       0.00000000
