10
Lattice="16.28999089631971 0.0 0.0 0.0 16.28999089631971 0.0 0.0 0.0 34.51877397758722" Properties=species:S:1:pos:R:3:initial_magmoms:R:1 pbc="T T T"
Si      -1.35833237      -1.35713619      -1.35638146       0.00000000
Si      -1.35721762       1.35747828       1.35769318       0.00000000
Si       1.35734633      -1.35708732       1.35838355       0.00000000
Si       1.35715085       1.35879777      -1.35734799       0.00000000
Si       2.71482461      -2.71432125      -0.00024163       0.00000000
Si      -0.00212422      -2.71111212      -2.71814786       0.00000000
Si      -2.71498167      -2.71441899       0.00000000       0.00000000
Si      -0.00010914       2.71482624       2.71469598       0.00000000
Si      -0.00077866       2.71383255      -2.71580058       0.00000000
Si      -2.71455813       2.71515204      -0.00017259       0.00000000
