10
Lattice="16.28999089631971 0.0 0.0 0.0 16.28999089631971 0.0 0.0 0.0 34.51877397758722" Properties=species:S:1:pos:R:3:initial_magmoms:R:1 pbc="T T T"
Si       0.15152958      -1.87685235      -1.45117007       0.00000000
Si      -0.22455765      -0.65599830       2.29301440       0.00000000
Si       2.23951662       0.93713112      -0.04480539       0.00000000
Si      -2.19687103       1.01206512      -0.52492729       0.00000000
Si      -2.43067488      -1.49890806       2.50219829       0.00000000
Si      -1.64423115      -3.37245354      -0.86328050       0.00000000
Si      -0.25976034       1.34381097       3.63772851       0.00000000
Si       2.83133232       1.63598841       2.11634722       0.00000000
Si       1.52969616      -2.15940240       2.90102842       0.00000000
Si      -2.68415641       2.77302131       0.97505235       0.00000000
