10
Lattice="10.86 0.0 0.0 0.0 10.86 0.0 0.0 0.0 10.86" Properties=species:S:1:pos:R:3:initial_magmoms:R:1 pbc="T T T"
Si      -1.07179512      -1.37617920       1.63248606       0.00000000
Si       1.64320488      -1.37617920      -1.08251394       0.00000000
Si       1.64320488       1.33882080       1.63248606       0.00000000
Si      -2.61826998      -0.64583334      -1.91629044       0.00000000
Si       0.44193684       2.40418680      -2.30491554       0.00000000
Si      -0.74236788      -0.94054116      -3.24774816       0.00000000
Si      -2.51018040      -2.40360036      -0.00278016       0.00000000
Si       0.27177150      -2.73236514      -2.47256136       0.00000000
Si      -2.53065150       2.74266042       0.32522442       0.00000000
Si      -2.42929512      -0.01867920       2.98998606       0.00000000
