10
Lattice="10.86 0.0 0.0 0.0 10.86 0.0 0.0 0.0 10.86" Properties=species:S:1:pos:R:3:initial_magmoms:R:1 pbc="T T T"
Si      -1.97901780      -1.00386582       0.61255830       0.00000000
Si       0.73598220      -1.00386582      -2.10244170       0.00000000
Si       1.83548118       0.25081170       1.90199868       0.00000000
Si      -0.62151780      -2.36136582       1.97005830       0.00000000
Si       2.09348220      -2.36136582      -0.74494170       0.00000000
Si      -1.97901780       1.71113418      -2.10244170       0.00000000
Si       0.73598220      -1.00386582       3.32755830       0.00000000
Si       3.45098220      -1.00386582       0.61255830       0.00000000
Si      -0.66777054       3.16439766       2.03476218       0.00000000
Si       0.73598220      -3.71886582       0.61255830       0.00000000
