10
Lattice="10.86 0.0 0.0 0.0 10.86 0.0 0.0 0.0 10.86" Properties=species:S:1:pos:R:3:initial_magmoms:R:1 pbc="T T T"
Si      -1.17530178      -1.37280174       1.36883784       0.00000000
Si       1.36046478      -1.32711372      -1.31340840       0.00000000
Si      -1.35453522       1.38788628      -1.31340840       0.00000000
Si       1.36046478       1.38788628       1.40159160       0.00000000
Si       2.65979862      -2.58802488       0.03177636       0.00000000
Si       2.42965350       0.15580842       2.82228594       0.00000000
Si       0.00296478      -2.68461372      -2.67090840       0.00000000
Si      -2.71203522       0.03038628      -2.67090840       0.00000000
Si       2.71796478       0.03038628      -2.67090840       0.00000000
Si       0.00296478       2.74538628      -2.67090840       0.00000000
