10
Lattice="10.86 0.0 0.0 0.0 10.86 0.0 0.0 0.0 10.86" Properties=species:S:1:pos:R:3:initial_magmoms:R:1 pbc="T T T"
Si       1.21525572      -1.25473182      -1.41940200       0.00000000
Si      -1.49974428      -1.25473182       1.29559800       0.00000000
Si       1.58007570       1.03357878       1.40983434       0.00000000
Si      -1.49974428       1.46026818      -1.41940200       0.00000000
Si      -0.08828094       2.66286114       2.60230578       0.00000000
Si       1.43393268      -0.90305244       3.34226274       0.00000000
Si       2.35652226       2.94916332       0.06157620       0.00000000
Si       2.57275572       0.10276818      -2.77690200       0.00000000
Si      -0.14224428      -2.61223182      -2.77690200       0.00000000
Si       3.40414302      -0.60757356       1.70701824       0.00000000
