10
Lattice="10.86 0.0 0.0 0.0 10.86 0.0 0.0 0.0 10.86" Properties=species:S:1:pos:R:3:initial_magmoms:R:1 pbc="T T T"
Si       1.75631178       0.59150076      -1.46417778       0.00000000
Si      -1.82406732       1.64115234      -0.29718390       0.00000000
Si      -1.97021034      -0.29547888       1.63524450       0.00000000
Si       1.53920952      -1.96388982       0.75475914       0.00000000
Si       0.52611270       2.06784174      -3.12642024       0.00000000
Si      -3.40414302       0.60757356      -1.70701824       0.00000000
Si       3.24111270       2.06784174      -0.41142024       0.00000000
Si      -2.18888730      -0.64715826      -3.12642024       0.00000000
Si      -0.79841634      -1.75120758       3.47445066       0.00000000
Si       1.93630542       3.33657210       1.07167566       0.00000000
