10
Lattice="10.86 0.0 0.0 0.0 10.86 0.0 0.0 0.0 10.86" Properties=species:S:1:pos:R:3:initial_magmoms:R:1 pbc="T T T"
Si      -1.22365050      -1.36691562       1.34671602       0.00000000
Si      -1.22365050       1.34808438      -1.36828398       0.00000000
Si       1.61630466      -1.15794750      -1.21150902       0.00000000
Si       1.49134950       1.34808438       1.34671602       0.00000000
Si      -2.58115050      -0.00941562       2.70421602       0.00000000
Si      -2.58115050       2.70558438      -0.01078398       0.00000000
Si      -2.58115050      -2.72441562      -0.01078398       0.00000000
Si      -2.58115050      -0.00941562      -2.72578398       0.00000000
Si       0.13083042      -2.54668086      -2.79759030       0.00000000
Si       0.13384950       2.70558438       2.70421602       0.00000000
