10
Lattice="16.28999089631971 0.0 0.0 0.0 16.28999089631971 0.0 0.0 0.0 34.474598006748145" Properties=species:S:1:pos:R:3:initial_magmoms:R:1 pbc="T T T"
Si       1.33820721       1.35290902       1.38272519       0.00000000
Si      -1.24303451       1.44334621      -1.41456250       0.00000000
Si      -1.37693506      -1.35941249       1.37489945       0.00000000
Si       1.31571072      -1.45801586      -1.49022394       0.00000000
Si      -2.19770508      -0.60547871      -2.69386891       0.00000000
Si      -0.51056118      -2.36049815      -2.86277019       0.00000000
Si       2.67975387       2.70050252       0.02062961       0.00000000
Si       2.68674228      -2.72482400       0.01486890       0.00000000
Si       2.69408907      -0.00028866       2.73661236       0.00000000
Si      -2.73369680       2.70661127       0.00309582       0.00000000
