10
Lattice="16.28999089631971 0.0 0.0 0.0 16.28999089631971 0.0 0.0 0.0 34.474598006748145" Properties=species:S:1:pos:R:3:initial_magmoms:R:1 pbc="T T T"
Si      -0.22965642      -1.83746965       1.43390276       0.00000000
Si      -1.50229638       0.20305485      -1.81739840       0.00000000
Si      -0.73979406       2.03258475       1.00541774       0.00000000
Si       2.36853342       0.08433333      -0.32764676       0.00000000
Si       0.07920198       3.43129302      -0.69359482       0.00000000
Si      -0.72857025       2.32647264      -2.64151412       0.00000000
Si      -1.15642710      -3.50289476       0.02964817       0.00000000
Si      -3.70576323      -0.34189452      -0.96432399       0.00000000
Si      -1.75044195      -1.42241674       3.13522512       0.00000000
Si       0.04367349       2.22156504       3.22117034       0.00000000
