10
Lattice="16.28999089631971 0.0 0.0 0.0 16.28999089631971 0.0 0.0 0.0 34.474598006748145" Properties=species:S:1:pos:R:3:initial_magmoms:R:1 pbc="T T T"
Si      -1.35656604      -1.35759231       1.35792070       0.00000000
Si       1.35876519       1.35729909       1.35829992       0.00000000
Si      -1.35917244       1.35742941      -1.35905836       0.00000000
Si       1.35972630      -1.35755973      -1.36054077       0.00000000
Si      -2.71379997      -0.00021177       2.71515191       0.00000000
Si      -2.71293660      -2.71656927       0.00051712       0.00000000
Si      -2.71396287       2.71580364       0.00044817       0.00000000
Si       0.00016290      -2.71443528       2.71542770       0.00000000
Si       2.71572219       2.71415835       0.00037922       0.00000000
Si       0.00096111       2.71505430       2.71573798       0.00000000
