10
Lattice="16.28999089631971 0.0 0.0 0.0 16.28999089631971 0.0 0.0 0.0 34.474598006748145" Properties=species:S:1:pos:R:3:initial_magmoms:R:1 pbc="T T T"
Si       1.35145098      -1.35782037       1.35416297       0.00000000
Si       1.35547461       1.35778779      -1.35740358       0.00000000
Si      -1.35928647      -1.35747828      -1.35798965       0.00000000
Si      -1.35889551       1.35786924       1.36157501       0.00000000
Si      -0.02158425      -2.69298135       2.70308579       0.00000000
Si       2.70246213       0.02467935       2.71659984       0.00000000
Si       2.71199178      -2.71489140      -0.00093081       0.00000000
Si       2.71327869       0.00003258      -2.71484164       0.00000000
Si       2.71368594       2.71502172      -0.00127556       0.00000000
Si      -0.00205254      -2.71485882      -2.71522086       0.00000000
