10
Lattice="16.28999089631971 0.0 0.0 0.0 16.28999089631971 0.0 0.0 0.0 34.474598006748145" Properties=species:S:1:pos:R:3:initial_magmoms:R:1 pbc="T T T"
Si      -1.06530084      -1.70712684       1.22515895       0.00000000
Si       1.19231397      -1.47375630      -1.52694975       0.00000000
Si      -1.49872887       1.21230180      -1.50723027       0.00000000
Si       2.26738881       0.55390887       0.73651572       0.00000000
Si       0.07977213       1.48432851       3.31528604       0.00000000
Si      -1.46310264      -0.44727453       3.33810824       0.00000000
Si       0.75085497      -3.46395447       1.28007701       0.00000000
Si       2.59776630      -2.75532318      -0.14572421       0.00000000
Si       2.55795354      -0.14146236      -2.88807659       0.00000000
Si      -2.83784832       2.61558756      -0.16637450       0.00000000
