10
Lattice="16.28999089631971 0.0 0.0 0.0 16.28999089631971 0.0 0.0 0.0 34.474598006748145" Properties=species:S:1:pos:R:3:initial_magmoms:R:1 pbc="T T T"
Si       2.31730137      -0.00078192       0.13141724       0.00000000
Si      -1.36151820       1.25550288       1.42573227       0.00000000
Si      -0.70843581      -2.18383740       0.56386684       0.00000000
Si      -0.28025316       0.09146835      -2.35044493       0.00000000
Si       1.54303767      -2.63199159       1.15900216       0.00000000
Si      -2.90458845       1.74190599      -0.35532988       0.00000000
Si      -2.54391156       0.78890841      -2.56315332       0.00000000
Si       2.91169089       2.19861243      -0.67477168       0.00000000
Si       3.04256475      -1.34702010      -1.70728647       0.00000000
Si      -1.59019722      -3.06426303      -1.43972897       0.00000000
