10
Lattice="16.28999089631971 0.0 0.0 0.0 16.28999089631971 0.0 0.0 0.0 34.474598006748145" Properties=species:S:1:pos:R:3:initial_magmoms:R:1 pbc="T T T"
Si       1.94790933      -0.42852474      -1.32385978       0.00000000
Si      -1.12241358      -1.60567272       1.39094535       0.00000000
Si       1.51857009       1.17977067       1.49544481       0.00000000
Si      -1.51744608       0.04294044      -1.93554291       0.00000000
Si       0.50292117      -0.38429739      -3.21441331       0.00000000
Si       2.78834301      -2.60806158      -0.04995372       0.00000000
Si      -2.51959059      -0.19859139       2.86975819       0.00000000
Si      -2.18227356      -3.13017237      -0.27934782       0.00000000
Si       0.19073961       2.51737515       2.89801359       0.00000000
Si       2.98115145       1.73574837      -1.79340407       0.00000000
