10
Lattice="16.28999089631971 0.0 0.0 0.0 16.28999089631971 0.0 0.0 0.0 34.474598006748145" Properties=species:S:1:pos:R:3:initial_magmoms:R:1 pbc="T T T"
Si      -1.34947989      -1.34759025       1.36106478       0.00000000
Si       1.32783048      -1.33760448      -1.40256878       0.00000000
Si       1.36451556       1.36350558       1.35882393       0.00000000
Si      -1.37103156       1.26680814      -1.50509284       0.00000000
Si       2.33515521       0.45841689      -2.73698265       0.00000000
Si       0.33259293       2.09272743      -3.05121879       0.00000000
Si      -2.68674228       2.72482400      -0.01486890       0.00000000
Si      -2.71033020      -2.71596654      -0.02825540       0.00000000
Si      -2.70635544       0.00635310       2.72212267       0.00000000
Si       0.00731421      -2.70806589       2.72243295       0.00000000
