10
Lattice="16.28999089631971 0.0 0.0 0.0 16.28999089631971 0.0 0.0 0.0 34.474598006748145" Properties=species:S:1:pos:R:3:initial_magmoms:R:1 pbc="T T T"
Si      -1.09709892       2.03491096       0.40966188       0.00000000
Si       0.99054603      -0.68794299       2.01959203       0.00000000
Si       1.99229958       0.17817676      -1.28049071       0.00000000
Si      -1.70276112      -1.41388470      -1.11501255       0.00000000
Si       2.43656046      -2.17462770      -1.54180831       0.00000000
Si      -3.24918222       1.28325778       0.94498373       0.00000000
Si      -1.32263397       2.94669484      -1.77889025       0.00000000
Si      -0.53660889      -2.41620840       2.74500693       0.00000000
Si      -1.94118156      -0.13072888      -3.15156609       0.00000000
Si       1.11169476       1.03180534       3.59494414       0.00000000
