10
Lattice="16.28999089631971 0.0 0.0 0.0 16.28999089631971 0.0 0.0 0.0 34.474598006748145" Properties=species:S:1:pos:R:3:initial_magmoms:R:1 pbc="T T T"
Si      -1.12010596       1.88599104       0.86524394       0.00000000
Si      -0.09457322       0.61090758      -2.29835378       0.00000000
Si      -1.22330311      -1.95012721       0.64367558       0.00000000
Si       2.06283691      -0.18549423       1.20468103       0.00000000
Si       1.30865878       0.74603313       3.22296302       0.00000000
Si       0.29785613      -3.57043310      -0.27076364       0.00000000
Si      -1.24728199       2.67330303      -2.24957220       0.00000000
Si      -3.02100235       2.10295755      -0.57548479       0.00000000
Si      -0.90717937       1.65060054       3.22441095       0.00000000
Si       2.05751008       1.36256076      -2.83367564       0.00000000
