10
Lattice="16.28999089631971 0.0 0.0 0.0 16.28999089631971 0.0 0.0 0.0 34.474598006748145" Properties=species:S:1:pos:R:3:initial_magmoms:R:1 pbc="T T T"
Si      -2.12796270       0.87182451      -0.45061772       0.00000000
Si       0.92677068       1.66542511       1.40425459       0.00000000
Si      -0.60406578      -2.27054907       0.34871075       0.00000000
Si       1.82102652      -0.23918607      -1.55184042       0.00000000
Si      -1.99417293       0.25793586      -2.69698378       0.00000000
Si       0.93900447      -2.75695218       2.12977291       0.00000000
Si       3.64193901      -0.04223997      -0.03895632       0.00000000
Si       2.93073390       0.66911175       2.11574174       0.00000000
Si       1.15642710       3.50289476      -0.02964817       0.00000000
Si      -0.24338889      -3.22354665      -1.85911269       0.00000000
