10
Lattice="16.28999089631971 0.0 0.0 0.0 16.28999089631971 0.0 0.0 0.0 34.474598006748145" Properties=species:S:1:pos:R:3:initial_magmoms:R:1 pbc="T T T"
Si      -2.21307795      -0.73533060       0.31761465       0.00000000
Si       0.60406578       2.27054907      -0.34871075       0.00000000
Si       1.54307025      -0.48640311       1.78106215       0.00000000
Si       0.36067689      -0.95299758      -2.20782344       0.00000000
Si       2.90458845      -1.74190599       0.35532988       0.00000000
Si      -1.52389692       3.14237358      -0.79932848       0.00000000
Si       2.62433529      -1.65043764      -1.99511505       0.00000000
Si       2.42509230       2.03136300      -1.90055118       0.00000000
Si      -3.00454389       0.50557644       2.17069428       0.00000000
Si      -3.53451949       0.03873762      -1.54780689       0.00000000
