10
Lattice="16.28999089631971 0.0 0.0 0.0 16.28999089631971 0.0 0.0 0.0 34.474598006748145" Properties=species:S:1:pos:R:3:initial_magmoms:R:1 pbc="T T T"
Si      -1.70362449      -0.82591929       1.54612595       0.00000000
Si      -0.60057972      -0.62279928      -2.44252663       0.00000000
Si       2.00256228      -1.63431054       0.31423614       0.00000000
Si       0.83859291       1.92435303       1.56577648       0.00000000
Si      -0.33259293      -2.09272743       3.05121879       0.00000000
Si       2.38391118       0.65043773       3.03119593       0.00000000
Si       0.99523755      -3.43033191       1.64865001       0.00000000
Si      -3.52989639      -1.72840158       0.17357970       0.00000000
Si       0.09159867       3.11936300      -2.54508862       0.00000000
Si      -2.60214831      -2.24603262      -2.21013324       0.00000000
