10
Lattice="16.28999089631971 0.0 0.0 0.0 16.28999089631971 0.0 0.0 0.0 34.474598006748145" Properties=species:S:1:pos:R:3:initial_magmoms:R:1 pbc="T T T"
Si      -0.48208626      -1.94722678      -1.21860877       0.00000000
Si      -2.14094583       0.26397945       0.95398161       0.00000000
Si       1.22262966       1.36873467      -1.55084066       0.00000000
Si       1.61300322      -0.36992961       1.74624279       0.00000000
Si      -2.77724952       0.73318032      -1.57307679       0.00000000
Si       2.59115256      -0.52476606      -2.01035283       0.00000000
Si      -1.04164776      -3.22402625       0.74744418       0.00000000
Si       3.34190979      -1.06123323       0.20584794       0.00000000
Si      -2.53410498      -1.84617502       2.08709333       0.00000000
Si      -2.45462607      -1.51692969      -2.49872026       0.00000000
