10
Lattice="16.28999089631971 0.0 0.0 0.0 16.28999089631971 0.0 0.0 0.0 34.474598006748145" Properties=species:S:1:pos:R:3:initial_magmoms:R:1 pbc="T T T"
Si      -1.45855773       1.46823888      -1.19358020       0.00000000
Si       1.97253981      -0.43029709       1.28011149       0.00000000
Si      -0.32262345       2.25011001       0.92564347       0.00000000
Si      -1.05163353      -2.17385393       0.46647605       0.00000000
Si       1.41996672      -0.99903542      -2.44245768       0.00000000
Si      -0.38138148       0.50977600      -3.40326527       0.00000000
Si       3.63695427      -0.70118269      -0.37784181       0.00000000
Si       2.45462607       1.51692969       2.49872026       0.00000000
Si      -3.18388050      -1.66523126       1.33513298       0.00000000
Si      -1.98387765       2.15137632       2.51251011       0.00000000
