10
Lattice="16.28999089631971 0.0 0.0 0.0 16.28999089631971 0.0 0.0 0.0 34.474598006748145" Properties=species:S:1:pos:R:3:initial_magmoms:R:1 pbc="T T T"
Si       1.34301276       1.34957763       1.37459262       0.00000000
Si      -1.37051028      -1.36303317       1.37197255       0.00000000
Si      -1.27518120       1.48157550      -1.39234361       0.00000000
Si       1.29490839      -1.41185430      -1.46698460       0.00000000
Si      -2.27385594      -0.36761643      -2.65679259       0.00000000
Si      -0.53040240      -2.32293771      -2.75713651       0.00000000
Si       2.71329498       2.70003492      -0.01939197       0.00000000
Si       2.70032814      -2.72575683      -0.00305100       0.00000000
Si       2.70078426      -0.00493587       2.73306492       0.00000000
Si      -0.01451439       2.70868491       2.73289255       0.00000000
