10
Lattice="16.28999089631971 0.0 0.0 0.0 16.28999089631971 0.0 0.0 0.0 34.474598006748145" Properties=species:S:1:pos:R:3:initial_magmoms:R:1 pbc="T T T"
Si      -1.36563957      -1.33229394       1.36112684       0.00000000
Si      -1.35441576       1.35804843      -1.35674856       0.00000000
Si       1.35944937      -1.35788553      -1.35754148       0.00000000
Si       1.34946360       1.37469681       1.38019130       0.00000000
Si      -0.29056473       0.69537123       3.62459231       0.00000000
Si       0.03981276      -2.61386082       2.74235238       0.00000000
Si      -2.71114470       2.71277370       0.00213743       0.00000000
Si      -2.71262709       0.00081450      -2.71287658       0.00000000
Si       0.00218286       2.71541268      -2.71204919       0.00000000
Si       0.00211770      -2.71414206      -2.71339370       0.00000000
