10
Lattice="16.28999089631971 0.0 0.0 0.0 16.28999089631971 0.0 0.0 0.0 34.474598006748145" Properties=species:S:1:pos:R:3:initial_magmoms:R:1 pbc="T T T"
Si      -1.35626078       1.35656604       1.36288504       0.00000000
Si       1.36027201      -1.35957969       1.36267820       0.00000000
Si      -1.35381163      -1.36335897      -1.37125203       0.00000000
Si       1.35129623       1.37875302      -1.37302058       0.00000000
Si       0.13685066      -2.62662404      -2.78891035       0.00000000
Si      -2.71135551       2.71373481       0.00044817       0.00000000
Si       2.71403617       2.71441899       0.00310272       0.00000000
Si      -2.71407594      -2.71667841       0.00679150       0.00000000
Si      -2.71339176      -0.00021177       2.72004730       0.00000000
Si       0.00125922       2.71471221       2.71966808       0.00000000
