10
Lattice="16.28999089631971 0.0 0.0 0.0 16.28999089631971 0.0 0.0 0.0 34.474598006748145" Properties=species:S:1:pos:R:3:initial_magmoms:R:1 pbc="T T T"
Si      -0.83329866      -0.05217687      -2.19186169       0.00000000
Si       1.27632150       1.76624325       1.03258374       0.00000000
Si      -1.39903407      -1.49980401       1.42669756       0.00000000
Si       2.27274822      -0.70817517      -0.94439767       0.00000000
Si       1.34765541       2.72675052      -1.28118020       0.00000000
Si      -0.39258900      -2.34196443      -2.37736961       0.00000000
Si      -2.14850439       0.08992080       3.01246101       0.00000000
Si       2.96624610       1.27565361      -2.20261777       0.00000000
Si       1.96957503      -2.43476856      -2.53909004       0.00000000
Si      -3.64555539      -1.80040338       0.27710697       0.00000000
