10
Lattice="16.28999089631971 0.0 0.0 0.0 16.28999089631971 0.0 0.0 0.0 34.474598006748145" Properties=species:S:1:pos:R:3:initial_magmoms:R:1 pbc="T T T"
Si      -0.60178518       0.90925893       2.12791128       0.00000000
Si      -1.27632150      -1.76624325      -1.03258374       0.00000000
Si       0.07133391       0.96050727      -2.31376394       0.00000000
Si      -0.90080442       2.36095857       0.10883637       0.00000000
Si       2.99059965       0.85253715       0.64015917       0.00000000
Si       0.99642672      -2.47441842      -1.97698140       0.00000000
Si       0.86011200       3.06564768      -1.58776297       0.00000000
Si       1.68992460      -0.49058964      -3.23520151       0.00000000
Si       2.78492211      -2.45081421      -0.36656861       0.00000000
Si      -1.89048708      -0.58806900       3.46506589       0.00000000
