10
Lattice="16.28999089631971 0.0 0.0 0.0 16.28999089631971 0.0 0.0 0.0 34.474598006748145" Properties=species:S:1:pos:R:3:initial_magmoms:R:1 pbc="T T T"
Si      -1.35509994       1.35195597       1.35892046       0.00000000
Si       1.35410625      -1.35738054       1.35823097       0.00000000
Si       1.35640314       1.35645201      -1.35781728       0.00000000
Si      -1.35853713      -1.35904212      -1.35640382       0.00000000
Si      -2.69923671      -0.02111184       2.72452900       0.00000000
Si       2.71430496       2.71342530       0.00162031       0.00000000
Si      -0.00120546       2.71386513      -2.71518638       0.00000000
Si       2.71419093      -0.00118917      -2.71518638       0.00000000
Si      -0.00149868      -2.71603170      -2.71491058       0.00000000
Si      -2.71567332       2.71551042       0.00082739       0.00000000
