10
Lattice="16.28999089631971 0.0 0.0 0.0 16.28999089631971 0.0 0.0 0.0 34.474598006748145" Properties=species:S:1:pos:R:3:initial_magmoms:R:1 pbc="T T T"
Si       0.52968564       0.24276987      -2.29032120       0.00000000
Si       0.24047298       2.30827671       0.59127416       0.00000000
Si       1.44940275      -1.07922879       1.65292000       0.00000000
Si      -2.39474403      -0.76745448      -0.19795325       0.00000000
Si      -2.64790692      -0.96673005       2.14783761       0.00000000
Si       2.78487324       2.36273418       0.09618418       0.00000000
Si       3.20261400       0.49798530       1.99487373       0.00000000
Si       2.30843961       2.09616462      -2.24936535       0.00000000
Si      -1.32843321       1.14186384      -3.56777814       0.00000000
Si       2.20504698      -3.24723231       1.16024324       0.00000000
