10
Lattice="16.28999089631971 0.0 0.0 0.0 16.28999089631971 0.0 0.0 0.0 34.474598006748145" Properties=species:S:1:pos:R:3:initial_magmoms:R:1 pbc="T T T"
Si      -0.13341510      -0.04214223       2.32493371       0.00000000
Si       0.22079466      -2.24039628      -0.68987157       0.00000000
Si      -2.34025398      -0.25866891      -0.33112870       0.00000000
Si       1.68076962       1.38885282      -1.05588858       0.00000000
Si      -1.70368965       1.72946043       2.25670845       0.00000000
Si       0.23022657       2.22935166      -2.77710279       0.00000000
Si       3.40464258      -0.23705208      -1.04502907       0.00000000
Si       2.38223331      -2.32238385      -1.62692614       0.00000000
Si      -0.76545081       3.50504178       0.93808881       0.00000000
Si      -0.00254124      -3.58777476       1.29241893       0.00000000
