10
Lattice="16.28999089631971 0.0 0.0 0.0 16.28999089631971 0.0 0.0 0.0 34.474598006748145" Properties=species:S:1:pos:R:3:initial_magmoms:R:1 pbc="T T T"
Si      -0.98510517      -1.89061740       0.98038917       0.00000000
Si      -0.37478403      -0.16407288      -2.31403974       0.00000000
Si       2.34025398       0.25866891       0.33112870       0.00000000
Si      -1.18434816       1.79118324       1.07495304       0.00000000
Si       2.56104864      -1.98172737      -0.35874287       0.00000000
Si       0.63656433       1.98812934       2.58783715       0.00000000
Si      -2.03882382       1.44430398      -2.25457102       0.00000000
Si       2.20683888       0.21652668       2.65606241       0.00000000
Si      -1.24356231       3.13313715      -0.86431313       0.00000000
Si      -3.24876357      -1.19317734       0.76768078       0.00000000
