10
Lattice="16.28999089631971 0.0 0.0 0.0 16.28999089631971 0.0 0.0 0.0 34.474598006748145" Properties=species:S:1:pos:R:3:initial_magmoms:R:1 pbc="T T T"
Si       1.35723393      -1.35738054      -1.35723121       0.00000000
Si      -1.35689510      -1.35744570       1.35788623       0.00000000
Si      -1.35814943       1.35793440      -1.35764490       0.00000000
Si       1.35928647       1.35747828       1.35798965       0.00000000
Si       2.71073745      -0.00034209       2.71215262       0.00000000
Si       2.71396287      -2.71422351       0.00027580       0.00000000
Si       2.71379997       0.00021177      -2.71515191       0.00000000
Si      -0.00226431      -2.71425609       2.71573798       0.00000000
Si       2.71476108       2.71526607       0.00058607       0.00000000
Si      -2.71566942      -0.00021177      -2.71442794       0.00000000
