10
Lattice="16.28999089631971 0.0 0.0 0.0 16.28999089631971 0.0 0.0 0.0 34.474598006748145" Properties=species:S:1:pos:R:3:initial_magmoms:R:1 pbc="T T T"
Si       1.35747828       1.35603330       1.35743806       0.00000000
Si       1.35742941      -1.35782762      -1.35764490       0.00000000
Si      -1.35796698       1.35775678      -1.35743806       0.00000000
Si      -1.35755973      -1.35786020       1.35926521       0.00000000
Si       2.71310804       0.00031813      -2.71491058       0.00000000
Si      -0.00035838       2.71464699      -2.71408319       0.00000000
Si       2.71499043       2.71453296       0.00013790       0.00000000
Si      -2.71451673       0.00138839      -2.71508296       0.00000000
Si      -0.00057015      -2.71556654      -2.71435899       0.00000000
Si       2.71452952      -2.71558283      -0.00048264       0.00000000
