10
Lattice="16.28999089631971 0.0 0.0 0.0 16.28999089631971 0.0 0.0 0.0 34.474598006748145" Properties=species:S:1:pos:R:3:initial_magmoms:R:1 pbc="T T T"
Si      -1.34495127      -1.35356868      -1.40111740       0.00000000
Si       1.36700793       1.36016613      -1.40390984       0.00000000
Si      -1.51715286       1.40033727       1.41611385       0.00000000
Si       1.32833547      -1.50768837       1.52474337       0.00000000
Si       2.71685664      -2.70742732      -0.04081795       0.00000000
Si      -2.72486088      -2.70039656      -0.01320378       0.00000000
Si       2.71977093       2.72020194      -0.02637308       0.00000000
Si      -2.71741635       2.73484665      -0.05536624       0.00000000
Si      -2.70686043       0.00361638      -2.76569170       0.00000000
Si       0.00964368      -2.71224753      -2.76627776       0.00000000
