10
Lattice="16.28999089631971 0.0 0.0 0.0 16.28999089631971 0.0 0.0 0.0 34.474598006748145" Properties=species:S:1:pos:R:3:initial_magmoms:R:1 pbc="T T T"
Si       0.92187507      -2.16613247      -0.35305456       0.00000000
Si       1.62383185       1.33695777       1.11735682       0.00000000
Si      -0.75075723       0.53646717      -2.21620077       0.00000000
Si      -1.72890657       0.69130362       1.54039485       0.00000000
Si      -3.34190979       1.06123323      -0.20584794       0.00000000
Si       3.17025296      -1.36018472      -0.94263946       0.00000000
Si       0.47112309       3.39935322       1.16613840       0.00000000
Si      -2.11928013       2.42996790      -1.75668860       0.00000000
Si      -1.76977818      -1.09020011       3.15197978       0.00000000
Si       1.71840508       0.72605019       3.41571060       0.00000000
