10
Lattice="16.28999089631971 0.0 0.0 0.0 16.28999089631971 0.0 0.0 0.0 34.474598006748145" Properties=species:S:1:pos:R:3:initial_magmoms:R:1 pbc="T T T"
Si      -1.35716877       1.35653346      -1.35798965       0.00000000
Si       1.35772263      -1.35777150      -1.35767938       0.00000000
Si       1.35742941       1.35904212       1.35698989       0.00000000
Si      -1.35852084      -1.35868374       1.35778280       0.00000000
Si       0.00055386       2.71282257       2.71215262       0.00000000
Si      -2.71480995       2.71393029      -0.00034475       0.00000000
Si       2.71525364       2.71437012      -0.00003447       0.00000000
Si      -2.71464705      -0.00003258      -2.71501401       0.00000000
Si       2.71485361      -0.00099369      -2.71484164       0.00000000
Si      -2.71472850       0.00076563       2.71522086       0.00000000
