10
Lattice="16.28999089631971 0.0 0.0 0.0 16.28999089631971 0.0 0.0 0.0 34.474598006748145" Properties=species:S:1:pos:R:3:initial_magmoms:R:1 pbc="T T T"
Si      -1.20026349       1.33450938      -1.47148009       0.00000000
Si      -1.74817764      -0.77237406       1.47606521       0.00000000
Si       1.51715286      -1.40033727      -1.41611385       0.00000000
Si       0.76835043       2.01026745       1.31992967       0.00000000
Si      -2.48613093       2.79406080      -0.06681181       0.00000000
Si      -3.42013437       1.02141558       1.29121232       0.00000000
Si      -2.54591523      -0.03727152      -2.82436749       0.00000000
Si      -2.75400369      -2.67243966       0.32192398       0.00000000
Si       2.78658369       2.66308920      -0.09032350       0.00000000
Si       0.06630030       1.53899775       3.53468251       0.00000000
