10
Lattice="16.28999089631971 0.0 0.0 0.0 16.28999089631971 0.0 0.0 0.0 34.474598006748145" Properties=species:S:1:pos:R:3:initial_magmoms:R:1 pbc="T T T"
Si      -0.39882807       2.27558268      -0.20636506       0.00000000
Si      -1.29383325      -0.87307884       1.76892709       0.00000000
Si      -0.16425207      -0.34676523      -2.32851907       0.00000000
Si       2.37229641       0.19231974       0.44810108       0.00000000
Si       0.79532667       2.07036126      -2.69722511       0.00000000
Si      -0.29716218       2.83734333       2.10539935       0.00000000
Si      -1.07991297      -3.34070433      -0.82118538       0.00000000
Si      -0.99066006       0.85351455       3.36361946       0.00000000
Si      -1.07385309      -3.18927249       1.53760240       0.00000000
Si       0.71654823      -2.68657938      -2.52102534       0.00000000
