10
Lattice="16.28999089631971 0.0 0.0 0.0 16.28999089631971 0.0 0.0 0.0 34.474598006748145" Properties=species:S:1:pos:R:3:initial_magmoms:R:1 pbc="T T T"
Si       1.35671265       1.35612621       1.35795517       0.00000000
Si      -1.35840681      -1.35936792       1.35750700       0.00000000
Si      -1.35891180       1.35738054      -1.36064419       0.00000000
Si       1.35852084      -1.35972630      -1.36178186       0.00000000
Si       0.00017919       2.71344159       2.71470374       0.00000000
Si       2.71425963       2.71396287       0.00110319       0.00000000
Si       2.71401560      -0.00153126       2.71546218       0.00000000
Si      -2.71743264       2.71278999       0.00041370       0.00000000
Si       2.71361557      -2.71689507       0.00065502       0.00000000
Si      -2.71604799      -0.00197109       2.71515191       0.00000000
