10
Lattice="16.28999089631971 0.0 0.0 0.0 16.28999089631971 0.0 0.0 0.0 34.474598006748145" Properties=species:S:1:pos:R:3:initial_magmoms:R:1 pbc="T T T"
Si       1.35552348      -1.35918873       1.35371480       0.00000000
Si       1.35638685       1.35733167      -1.35923074       0.00000000
Si      -1.35984033      -1.35808101      -1.35878257       0.00000000
Si      -1.36228383       1.35873261       1.35719673       0.00000000
Si      -0.01410714      -2.69946477       2.70967044       0.00000000
Si       2.70490563       0.01001835       2.71484164       0.00000000
Si       2.71239903      -2.71296918      -0.00144793       0.00000000
Si       2.71155195       2.71520091      -0.00310272       0.00000000
Si       2.71292031       0.00001629      -2.71597930       0.00000000
Si      -0.00219915       2.71492398      -2.71622062       0.00000000
