10
Lattice="16.28999089631971 0.0 0.0 0.0 16.28999089631971 0.0 0.0 0.0 34.474598006748145" Properties=species:S:1:pos:R:3:initial_magmoms:R:1 pbc="T T T"
Si       1.10951190       1.58301333      -1.25142861       0.00000000
Si      -1.71483201      -1.14697890      -1.26277076       0.00000000
Si       0.40452957       1.14567570       2.09409168       0.00000000
Si       1.53964935      -1.93077225       0.12397072       0.00000000
Si      -0.58323087      -0.66512070       3.18348958       0.00000000
Si       0.83759922      -2.40204195       2.33872356       0.00000000
Si       2.29004820       0.10295280      -2.66226784       0.00000000
Si      -0.42896457      -2.60653032      -2.66743904       0.00000000
Si       3.00249135       2.38037625       0.05102243       0.00000000
Si      -0.40145076       2.82211218      -2.64292758       0.00000000
