10
Lattice="16.28999089631971 0.0 0.0 0.0 16.28999089631971 0.0 0.0 0.0 34.474598006748145" Properties=species:S:1:pos:R:3:initial_magmoms:R:1 pbc="T T T"
Si      -0.98776044      -1.81079640       1.08939791       0.00000000
Si      -0.75564423       2.16800352       0.49267676       0.00000000
Si       2.22154875      -0.19008801       0.86948432       0.00000000
Si      -0.40452957      -1.14567570      -2.09409168       0.00000000
Si       0.70498233       0.43733763      -3.34552028       0.00000000
Si       2.59796178       1.23470055      -2.04306924       0.00000000
Si       0.43306965      -3.54771765       0.24463188       0.00000000
Si       2.19372543      -2.53806345       1.40435801       0.00000000
Si       2.01383496       0.90279180       3.02669902       0.00000000
Si      -1.82705382       1.67619213       2.84825840       0.00000000
