10
Lattice="16.28999089631971 0.0 0.0 0.0 16.28999089631971 0.0 0.0 0.0 34.474598006748145" Properties=species:S:1:pos:R:3:initial_magmoms:R:1 pbc="T T T"
Si       1.54077240      -1.21241583       1.29972755       0.00000000
Si      -2.11895433      -0.49796901       0.89509896       0.00000000
Si       0.67157154       2.26074249      -0.47523260       0.00000000
Si       0.20771379      -1.09287981      -2.15721470       0.00000000
Si       2.56061600      -0.61305786      -1.96939699       0.00000000
Si       2.53932822       0.48876516       2.50106453       0.00000000
Si       2.74051950       1.76233365      -1.57704137       0.00000000
Si      -2.42922996      -2.78252748       0.36925763       0.00000000
Si      -1.01626794       2.84242581      -2.19206854       0.00000000
Si      -2.01383496      -0.90279180      -3.02669902       0.00000000
