10
Lattice="16.28999089631971 0.0 0.0 0.0 16.28999089631971 0.0 0.0 0.0 34.474598006748145" Properties=species:S:1:pos:R:3:initial_magmoms:R:1 pbc="T T T"
Si       0.75564423      -2.16800352      -0.49267676       0.00000000
Si       1.75321125       1.57721409       0.34195373       0.00000000
Si      -1.44940275       1.07922879      -1.65292000       0.00000000
Si      -1.07140959      -0.49181139       2.35558165       0.00000000
Si      -1.20892977       3.38750550      -1.06164584       0.00000000
Si       2.97719298      -2.35809153       0.37680757       0.00000000
Si      -3.05942490      -1.64439405       1.74527750       0.00000000
Si       0.65052486      -1.76318073       3.42912123       0.00000000
Si       1.00805778       3.68535823       1.00297004       0.00000000
Si       2.76947919      -1.26521172       2.53402227       0.00000000
