10
Lattice="16.28999089631971 0.0 0.0 0.0 16.28999089631971 0.0 0.0 0.0 34.474598006748145" Properties=species:S:1:pos:R:3:initial_magmoms:R:1 pbc="T T T"
Si      -1.35881065       1.35433431       1.35609355       0.00000000
Si       1.35766399       1.35534429      -1.35840334       0.00000000
Si      -1.35765428      -1.35974259      -1.35809307       0.00000000
Si       1.35800608      -1.35954711       1.36109236       0.00000000
Si      -0.00024272       2.71278999      -2.71560008       0.00000000
Si      -2.71632559       2.71309950      -0.00272349       0.00000000
Si       2.71453954      -0.00184077      -2.71584140       0.00000000
Si      -2.71547851      -2.71507059      -0.00106871       0.00000000
Si      -2.71495723      -0.00208512      -2.71560008       0.00000000
Si       2.71522372       2.71552671      -0.00162031       0.00000000
