10
Lattice="16.28999089631971 0.0 0.0 0.0 16.28999089631971 0.0 0.0 0.0 34.474598006748145" Properties=species:S:1:pos:R:3:initial_magmoms:R:1 pbc="T T T"
Si      -1.95225876       0.75702888       1.16365623       0.00000000
Si       0.84572793      -2.24960013       0.21594900       0.00000000
Si       2.38860270      -0.31799709       0.19312681       0.00000000
Si      -2.28637969      -0.09321138      -2.07519959       0.00000000
Si       0.67795722       2.31462981      -2.03331293       0.00000000
Si      -0.66253059      -2.39461371       2.00880147       0.00000000
Si      -1.18110645      -0.37242198       3.02149336       0.00000000
Si      -0.52901775       0.81326196      -3.28853374       0.00000000
Si      -3.06208669      -2.12037156      -0.90844064       0.00000000
Si      -1.77235526       3.13242039       1.55601185       0.00000000
