10
Lattice="16.28999089631971 0.0 0.0 0.0 16.28999089631971 0.0 0.0 0.0 34.474598006748145" Properties=species:S:1:pos:R:3:initial_magmoms:R:1 pbc="T T T"
Si      -0.34047403       1.07509113      -2.02617668       0.00000000
Si      -0.28964923       1.84151934       1.43938422       0.00000000
Si       2.15793630      -0.96018147       0.16558159       0.00000000
Si      -2.08118501      -0.77071248       0.99086945       0.00000000
Si      -2.67407585       1.50416973       1.39791126       0.00000000
Si      -1.33902985      -0.62608986      -3.22751367       0.00000000
Si       1.03179231       1.06745112       3.30480576       0.00000000
Si       1.77409503       1.73592756      -2.79216820       0.00000000
Si      -1.38622850      -1.68832818       3.03152547       0.00000000
Si      -1.67644367       2.94076854      -1.60765483       0.00000000
