10
Lattice="16.28999089631971 0.0 0.0 0.0 16.28999089631971 0.0 0.0 0.0 34.474598006748145" Properties=species:S:1:pos:R:3:initial_magmoms:R:1 pbc="T T T"
Si       0.99826749      -0.73516770      -2.10570962       0.00000000
Si       0.88096320      -1.17590994       2.00076889       0.00000000
Si       1.54579068       1.99720287       0.34457380       0.00000000
Si      -2.56773473       0.31387572      -0.41466070       0.00000000
Si      -2.32330328       1.60518402       2.41832545       0.00000000
Si       2.41732197      -2.80016955       0.93736484       0.00000000
Si       3.39358167      -0.60020505      -1.76510040       0.00000000
Si       0.54289683      -3.03209028      -2.40832781       0.00000000
Si       3.56615793       1.56996504      -0.93429660       0.00000000
Si       0.67324941      -4.04874918      -0.25945597       0.00000000
