10
Lattice="16.28999089631971 0.0 0.0 0.0 16.28999089631971 0.0 0.0 0.0 34.474598006748145" Properties=species:S:1:pos:R:3:initial_magmoms:R:1 pbc="T T T"
Si      -1.80301208      -0.70076322       1.41182339       0.00000000
Si       1.68714390      -1.75501944      -0.16890128       0.00000000
Si      -1.76010422      -0.85696803      -1.58136082       0.00000000
Si       0.95467056       2.04882492       1.27930641       0.00000000
Si      -1.38747047       1.10113462      -2.77266570       0.00000000
Si       1.03958545       1.82131878      -2.64135188       0.00000000
Si      -0.53664377      -2.13861636       2.71350220       0.00000000
Si       2.19770508       0.60547871       2.69386891       0.00000000
Si      -1.31581076       3.14379800      -1.57060474       0.00000000
Si       0.69841583      -3.52388538       1.19921153       0.00000000
