10
Lattice="16.28999089631971 0.0 0.0 0.0 16.28999089631971 0.0 0.0 0.0 34.474598006748145" Properties=species:S:1:pos:R:3:initial_magmoms:R:1 pbc="T T T"
Si      -1.35716753      -1.35703845      -1.35685199       0.00000000
Si      -1.35763069       1.35692442       1.35681751       0.00000000
Si       1.35790671      -1.35744570       1.35719673       0.00000000
Si       1.35872121       1.35708732      -1.35754148       0.00000000
Si       0.00008634       2.71386513       2.71435899       0.00000000
Si       0.00024272      -2.71278999       2.71560008       0.00000000
Si      -2.71241762      -0.00182448      -2.71639299       0.00000000
Si      -2.71608287       0.00030951       2.71287658       0.00000000
Si      -2.71473080       2.71467963      -0.00034475       0.00000000
Si       2.71478226      -2.71463076      -0.00024132       0.00000000
