10
Lattice="16.28999089631971 0.0 0.0 0.0 16.28999089631971 0.0 0.0 0.0 34.474598006748145" Properties=species:S:1:pos:R:3:initial_magmoms:R:1 pbc="T T T"
Si      -1.20697497      -1.50136785      -1.25522081       0.00000000
Si       1.51760898       1.16320374      -1.30765671       0.00000000
Si      -1.24748820       1.57532445       1.52405388       0.00000000
Si      -0.67795722      -2.31462981       2.03331293       0.00000000
Si       2.76110613       2.34395181       0.25356081       0.00000000
Si       0.11855862       2.54119113      -2.59997221       0.00000000
Si      -2.58504870      -0.17552475      -2.62082935       0.00000000
Si       0.73348983       3.14685333       1.83704893       0.00000000
Si      -2.96433691      -2.40784119      -0.04188666       0.00000000
Si       1.71064548      -2.63262690       2.22643973       0.00000000
