10
Lattice="16.28999089631971 0.0 0.0 0.0 16.28999089631971 0.0 0.0 0.0 34.474598006748145" Properties=species:S:1:pos:R:3:initial_magmoms:R:1 pbc="T T T"
Si       1.55530241       1.12541226      -1.36812519       0.00000000
Si      -1.03092470      -1.61777619      -1.42828339       0.00000000
Si       1.52659943      -1.31271336       1.31186261       0.00000000
Si      -1.58344569       1.82517951       0.56010911       0.00000000
Si       0.17019955       2.36013822      -2.81950657       0.00000000
Si      -2.54369232      -0.36556389      -2.80912971       0.00000000
Si       3.50757746       0.25881552       1.62485766       0.00000000
Si       2.42153945       3.08779298      -0.13969115       0.00000000
Si      -1.83261753      -3.50067213      -0.11559339       0.00000000
Si      -1.21832163       3.55987718      -1.25394525       0.00000000
