10
Lattice="16.28999089631971 0.0 0.0 0.0 16.28999089631971 0.0 0.0 0.0 34.474598006748145" Properties=species:S:1:pos:R:3:initial_magmoms:R:1 pbc="T T T"
Si      -0.11667666      -1.58687406       1.72128317       0.00000000
Si      -0.92187507       2.16613247       0.35305456       0.00000000
Si      -0.64846371      -1.68057414      -1.67353582       0.00000000
Si       2.24837789       0.80594775      -0.58958490       0.00000000
Si       3.06338288      -1.29914379      -1.30672589       0.00000000
Si      -1.67263230       2.70259964      -1.86314622       0.00000000
Si       1.09438615      -0.67825044       3.49800152       0.00000000
Si       1.42048425      -2.17898298      -2.77534459       0.00000000
Si       0.70195679       3.50309024       1.47041138       0.00000000
Si       1.21929298      -3.45255147       1.30276131       0.00000000
