10
Lattice="16.28999089631971 0.0 0.0 0.0 16.28999089631971 0.0 0.0 0.0 34.71893929493243" Properties=species:S:1:pos:R:3:initial_magmoms:R:1 pbc="T T T"
Si      -1.41242445       0.93315636       1.63572510       0.00000000
Si      -1.84756293      -0.53538714      -1.48107606       0.00000000
Si       1.43185842       1.37484342      -1.48041640       0.00000000
Si       1.30261356      -1.88413398       1.20554640       0.00000000
Si       0.29072763       1.86245199       2.83597444       0.00000000
Si      -1.98252558       1.74141729      -2.45549835       0.00000000
Si       3.43267767      -0.12109986      -1.27422050       0.00000000
Si      -2.41301489      -0.80756046       2.77356016       0.00000000
Si       2.81209383       2.73988026      -0.16994930       0.00000000
Si       1.24903575       3.43947127       1.43949459       0.00000000
