10
Lattice="16.28999089631971 0.0 0.0 0.0 16.28999089631971 0.0 0.0 0.0 34.71893929493243" Properties=species:S:1:pos:R:3:initial_magmoms:R:1 pbc="T T T"
Si       1.35752715       1.35708732       1.35674747       0.00000000
Si      -1.35716877      -1.35773892       1.35685162       0.00000000
Si       1.35780408      -1.35753692      -1.35737241       0.00000000
Si      -1.35752715       1.35772263      -1.35799735       0.00000000
Si       2.71533123      -0.00166158       2.71283528       0.00000000
Si       2.71379997      -0.00123804      -2.71530032       0.00000000
Si      -2.71409319      -0.00081450       2.71536976       0.00000000
Si      -2.71461447      -2.71512257      -0.00031247       0.00000000
Si       2.71495656      -2.71490790      -0.00059022       0.00000000
Si       0.00045612      -2.71570653      -2.71443235       0.00000000
