10
Lattice="16.28999089631971 0.0 0.0 0.0 16.28999089631971 0.0 0.0 0.0 34.71893929493243" Properties=species:S:1:pos:R:3:initial_magmoms:R:1 pbc="T T T"
Si      -0.38522592       2.15546022       0.94376545       0.00000000
Si      -1.51645239      -1.85366516      -0.00076382       0.00000000
Si      -0.68642802       0.49409199      -2.25947511       0.00000000
Si       2.26598787      -0.83536749       0.45575577       0.00000000
Si       1.06438860       3.33057195      -0.54033115       0.00000000
Si      -2.61819396       2.53208502       0.36947916       0.00000000
Si       2.64865626      -1.93170078      -1.64786594       0.00000000
Si      -0.26375139      -3.47166683      -1.25394463       0.00000000
Si      -2.60198541       1.84586877      -1.88582968       0.00000000
Si      -1.82648367      -2.31647221       2.25218413       0.00000000
