10
Lattice="16.28999089631971 0.0 0.0 0.0 16.28999089631971 0.0 0.0 0.0 34.71893929493243" Properties=species:S:1:pos:R:3:initial_magmoms:R:1 pbc="T T T"
Si      -0.36302265       1.81072798       1.42010957       0.00000000
Si      -0.29520738      -2.02360311       1.22193375       0.00000000
Si       2.17363986       0.16417714      -1.00066983       0.00000000
Si      -2.11263381       0.20562378      -1.11920035       0.00000000
Si      -1.39952277       0.61296989       3.23330719       0.00000000
Si      -1.92919212      -3.14373609      -0.00493009       0.00000000
Si       2.51296056      -1.91509542      -2.11955771       0.00000000
Si      -1.80260253       0.66843083      -3.37214830       0.00000000
Si       1.97983773       1.68672850      -2.91562871       0.00000000
Si      -3.35259603       2.08863538      -0.28823680       0.00000000
