10
Lattice="16.28999089631971 0.0 0.0 0.0 16.28999089631971 0.0 0.0 0.0 34.71893929493243" Properties=species:S:1:pos:R:3:initial_magmoms:R:1 pbc="T T T"
Si      -1.18824147       1.43032716       1.47067079       0.00000000
Si       1.14890112       1.79067825      -1.18050535       0.00000000
Si      -0.98091864      -1.22246676      -1.89050081       0.00000000
Si       1.52280549      -1.28396151       1.45997040       0.00000000
Si      -2.42924625      -2.57303808       0.06553898       0.00000000
Si       0.86840361      -1.04917374      -3.43674435       0.00000000
Si      -2.17357470       0.74298690      -2.95699778       0.00000000
Si      -2.52985329       0.06962346       2.84528463       0.00000000
Si      -2.65473243       2.77783596       0.00725626       0.00000000
Si      -0.64984068       2.68977222      -2.71094452       0.00000000
