10
Lattice="16.28999089631971 0.0 0.0 0.0 16.28999089631971 0.0 0.0 0.0 34.71893929493243" Properties=species:S:1:pos:R:3:initial_magmoms:R:1 pbc="T T T"
Si       1.35654975       1.35446463      -1.35629612       0.00000000
Si      -1.35729909       1.35681039       1.35813623       0.00000000
Si       1.35765747      -1.35754344       1.35810151       0.00000000
Si      -1.35871632      -1.35801585      -1.35900420       0.00000000
Si      -2.71492398       2.71456560      -0.00013888       0.00000000
Si      -2.71595025      -0.00216657       2.71366853       0.00000000
Si       0.00003258       2.71477737       2.71488369       0.00000000
Si       0.00320913      -2.71484253      -2.71526560       0.00000000
Si       2.71551042       2.71464705       0.00024303       0.00000000
Si      -2.71495656      -2.71523349      -0.00013888       0.00000000
