10
Lattice="16.28999089631971 0.0 0.0 0.0 16.28999089631971 0.0 0.0 0.0 34.71893929493243" Properties=species:S:1:pos:R:3:initial_magmoms:R:1 pbc="T T T"
Si      -1.35816246       1.35109260      -1.36393429       0.00000000
Si       1.35788553      -1.36260963      -1.36299688       0.00000000
Si       1.34944731       1.35918873       1.38382826       0.00000000
Si      -1.35698958      -1.38101733       1.37830794       0.00000000
Si       2.64531681      -0.10596645       2.76977437       0.00000000
Si       2.71551042       2.70878265       0.00194426       0.00000000
Si      -2.71575477       2.71091664       0.00121516       0.00000000
Si       0.00048870       2.71006956      -2.71946660       0.00000000
Si      -2.71373481      -2.72051145      -0.00437459       0.00000000
Si      -2.71476108      -0.00452862      -2.72009154       0.00000000
