10
Lattice="16.28999089631971 0.0 0.0 0.0 16.28999089631971 0.0 0.0 0.0 34.71893929493243" Properties=species:S:1:pos:R:3:initial_magmoms:R:1 pbc="T T T"
Si      -0.33431967       1.86623127       1.32952780       0.00000000
Si       0.22522554      -2.10474945       1.00678036       0.00000000
Si      -2.05907229       0.09534537      -1.13506692       0.00000000
Si       2.14721748       0.66898143      -0.71652987       0.00000000
Si      -0.74722230       3.46475268      -0.35899403       0.00000000
Si       3.18415743      -1.38644190      -1.04667245       0.00000000
Si      -3.23965746      -1.68454890      -0.03499671       0.00000000
Si       2.53180809      -2.56332924       0.88484738       0.00000000
Si       3.08343636       1.87897005       1.08979339       0.00000000
Si      -0.32593032      -1.93043016       3.24080648       0.00000000
