10
Lattice="16.28999089631971 0.0 0.0 0.0 16.28999089631971 0.0 0.0 0.0 34.71893929493243" Properties=species:S:1:pos:R:3:initial_magmoms:R:1 pbc="T T T"
Si       0.33431967      -1.86623127      -1.32952780       0.00000000
Si       1.79574444       0.73246356       1.26887378       0.00000000
Si      -1.71823662      -0.21497913       1.57724757       0.00000000
Si      -0.41290263       1.59852141      -1.68852184       0.00000000
Si       3.41775603       0.01273878      -0.23973441       0.00000000
Si       2.48153715      -1.19724984      -2.04605767       0.00000000
Si      -2.45317626       0.56436705      -2.35658404       0.00000000
Si      -0.39340350       3.46180419      -0.18782957       0.00000000
Si      -1.72475262      -1.77088590      -2.46459472       0.00000000
Si       1.05197562       2.96723979       1.67723818       0.00000000
