10
Lattice="16.28999089631971 0.0 0.0 0.0 16.28999089631971 0.0 0.0 0.0 34.71893929493243" Properties=species:S:1:pos:R:3:initial_magmoms:R:1 pbc="T T T"
Si      -1.94595453       0.62701839       1.32112582       0.00000000
Si      -0.46753929       0.05776434      -2.39144188       0.00000000
Si       1.52373402       1.94678532       0.24605326       0.00000000
Si       1.19265606      -1.96545366       1.06649697       0.00000000
Si       3.04197831      -1.79216064      -0.47974657       0.00000000
Si      -0.48115773       2.03484906       2.96425404       0.00000000
Si       2.17357470      -0.74298690       2.95699778       0.00000000
Si      -0.91435770      -2.13219810      -3.08964013       0.00000000
Si      -3.77363063       0.43958565      -0.82030484       0.00000000
Si       3.32247582       1.04769135       1.77649243       0.00000000
