10
Lattice="16.28999089631971 0.0 0.0 0.0 16.28999089631971 0.0 0.0 0.0 34.71893929493243" Properties=species:S:1:pos:R:3:initial_magmoms:R:1 pbc="T T T"
Si      -1.81853415      -1.29314907      -0.76961516       0.00000000
Si      -0.21970323      -0.15768720       2.38654650       0.00000000
Si       2.06381268      -1.38434049      -0.52616582       0.00000000
Si      -0.26178030       2.32034760      -1.30973800       0.00000000
Si       1.80734292       0.51741927       3.29583603       0.00000000
Si      -0.85336794      -2.17575756      -3.02391715       0.00000000
Si      -3.71574900       0.33344001      -1.04622110       0.00000000
Si       2.03436036       2.96381889      -1.45184270       0.00000000
Si       2.03792787       0.88484022      -3.18268694       0.00000000
Si      -2.46811419      -2.75327064       1.33157622       0.00000000
