10
Lattice="16.28999089631971 0.0 0.0 0.0 16.28999089631971 0.0 0.0 0.0 34.71893929493243" Properties=species:S:1:pos:R:3:initial_magmoms:R:1 pbc="T T T"
Si       0.41290263      -1.59852141       1.68852184       0.00000000
Si      -2.04027363      -1.03415436      -0.66806220       0.00000000
Si       0.01949913       1.86328278       1.50069227       0.00000000
Si       1.26133470      -0.02393001      -2.13358417       0.00000000
Si       0.74722230      -3.46475268       0.35899403       0.00000000
Si      -2.26610190      -0.37392066      -2.87681292       0.00000000
Si      -1.31184999      -3.36940731      -0.77607288       0.00000000
Si      -2.16697725       1.82847105       2.50844477       0.00000000
Si       2.20864707      -0.86605785       2.95739562       0.00000000
Si       1.46487825       1.36871838       3.36576001       0.00000000
