10
Lattice="16.28999089631971 0.0 0.0 0.0 16.28999089631971 0.0 0.0 0.0 34.71893929493243" Properties=species:S:1:pos:R:3:initial_magmoms:R:1 pbc="T T T"
Si      -0.01949913      -1.86328278      -1.50069227       0.00000000
Si      -2.18647638      -0.03481173       1.00775250       0.00000000
Si       1.44537912      -0.49456440       1.86506774       0.00000000
Si       0.74375253       2.01256434      -1.11336757       0.00000000
Si       0.39340350      -3.46180419       0.18782957       0.00000000
Si       2.82468600       1.39474980       1.93592914       0.00000000
Si      -3.50378352       1.32551730      -0.41475268       0.00000000
Si       2.18914794      -2.72934063       1.45670335       0.00000000
Si       2.86001901       2.50748712      -0.10794124       0.00000000
Si      -1.94118156       0.62923383       3.27069950       0.00000000
