10
Lattice="16.28999089631971 0.0 0.0 0.0 16.28999089631971 0.0 0.0 0.0 34.71893929493243" Properties=species:S:1:pos:R:3:initial_magmoms:R:1 pbc="T T T"
Si       1.34695494       1.32900582      -1.35395954       0.00000000
Si       1.35405738      -1.35923760       1.35292838       0.00000000
Si      -1.35966114       1.35406394       1.35313670       0.00000000
Si      -1.35599589      -1.36422234      -1.36658335       0.00000000
Si      -0.15866460       2.52532534      -2.65551775       0.00000000
Si       2.50993062      -0.11684817      -2.81986688       0.00000000
Si      -2.79054216      -0.03034827      -2.59064884       0.00000000
Si      -0.00231318       2.71223354       2.71019663       0.00000000
Si       2.71231758      -0.00244350       2.71033551       0.00000000
Si      -0.00180819      -2.71757925       2.70960641       0.00000000
