10
Lattice="16.28999089631971 0.0 0.0 0.0 16.28999089631971 0.0 0.0 0.0 34.71893929493243" Properties=species:S:1:pos:R:3:initial_magmoms:R:1 pbc="T T T"
Si      -1.19724007      -0.37892169      -1.99936067       0.00000000
Si      -1.69198921      -0.25474302       1.67737705       0.00000000
Si       0.76857360       2.26724220      -0.18696159       0.00000000
Si       2.21388756      -0.96021731      -0.14005628       0.00000000
Si       0.07191872       0.39099258       3.14355868       0.00000000
Si       1.66558245       1.96902117      -2.41633537       0.00000000
Si      -1.12316292      -2.73654800      -2.12209219       0.00000000
Si       0.26081430       0.51544818      -3.66160026       0.00000000
Si      -3.43479115       0.35533377      -1.40337503       0.00000000
Si       3.25038768       0.23754078      -1.95325390       0.00000000
