10
Lattice="16.28999089631971 0.0 0.0 0.0 16.28999089631971 0.0 0.0 0.0 34.71893929493243" Properties=species:S:1:pos:R:3:initial_magmoms:R:1 pbc="T T T"
Si       1.58589666       1.03190634      -1.43604557       0.00000000
Si      -1.17402030      -1.63488069      -1.41948463       0.00000000
Si       1.13857326      -1.32133077       2.02824685       0.00000000
Si      -1.82276955       1.95588233       0.13693157       0.00000000
Si       0.34728651       0.24162957       3.66378755       0.00000000
Si       0.25446609       2.45835389      -2.81706159       0.00000000
Si      -2.46635487      -0.25453125      -2.83455994       0.00000000
Si      -2.87433792      -2.50313769       0.01097119       0.00000000
Si       0.92580957       2.35666520       3.00350240       0.00000000
Si       3.38967207       2.05289742      -0.27990425       0.00000000
