10
Lattice="16.28999089631971 0.0 0.0 0.0 16.28999089631971 0.0 0.0 0.0 34.71893929493243" Properties=species:S:1:pos:R:3:initial_magmoms:R:1 pbc="T T T"
Si      -1.63398474      -1.12013298      -1.22686384       0.00000000
Si       1.60306632      -1.69903071      -0.20157827       0.00000000
Si      -1.11278619       0.26233416       2.06442400       0.00000000
Si       0.29520738       2.02360311      -1.22193375       0.00000000
Si      -1.10431539       2.63657301       2.01137343       0.00000000
Si       1.61813457      -1.82700495      -2.59708227       0.00000000
Si      -2.64446973      -2.38607775       0.49703661       0.00000000
Si      -1.81742643       2.22922690      -2.34113410       0.00000000
Si      -3.37851179      -0.50793849       1.73032346       0.00000000
Si      -0.68913216      -1.92277386      -3.24695174       0.00000000
