10
Lattice="16.28999089631971 0.0 0.0 0.0 16.28999089631971 0.0 0.0 0.0 34.71893929493243" Properties=species:S:1:pos:R:3:initial_magmoms:R:1 pbc="T T T"
Si      -0.82259613       1.44327771       1.70407593       0.00000000
Si      -0.94530870       1.09916775      -1.94047732       0.00000000
Si      -0.91439028      -2.24552763       0.17758747       0.00000000
Si       2.47016673       0.00355122       0.14488221       0.00000000
Si       0.50398002       0.31387572       3.57997599       0.00000000
Si       2.84736168       2.30447415      -0.56439139       0.00000000
Si       1.05625989      -3.49137054       0.74277740       0.00000000
Si      -1.15968510      -2.90957319      -2.08535954       0.00000000
Si      -3.21103430       0.32889510      -2.27457786       0.00000000
Si      -2.91040398       0.68044959       2.60489403       0.00000000
