10
Lattice="16.28999089631971 0.0 0.0 0.0 16.28999089631971 0.0 0.0 0.0 34.71893929493243" Properties=species:S:1:pos:R:3:initial_magmoms:R:1 pbc="T T T"
Si      -1.24625016       1.38630018       1.45583538       0.00000000
Si       0.71526132       1.96914009      -1.25850813       0.00000000
Si       1.48162437      -1.32620378       1.42736583       0.00000000
Si      -1.88076195      -0.99365253      -1.22851095       0.00000000
Si      -2.74279617       2.61582051       0.06078595       0.00000000
Si       2.72100015       2.68801779       0.04136417       0.00000000
Si      -2.59266753       0.03303286       2.81931832       0.00000000
Si      -3.62002896       0.68084544      -1.11365643       0.00000000
Si       0.12056229      -2.68635362       2.81202734       0.00000000
Si       0.12059487       2.74164447       2.81883226       0.00000000
