10
Lattice="16.28999089631971 0.0 0.0 0.0 16.28999089631971 0.0 0.0 0.0 34.71893929493243" Properties=species:S:1:pos:R:3:initial_magmoms:R:1 pbc="T T T"
Si      -1.35687555       1.35668007      -1.35712938       0.00000000
Si       1.35830907       1.35594702       1.35709466       0.00000000
Si       1.35720135      -1.35718669      -1.35719881       0.00000000
Si      -1.35798327      -1.35767050       1.35626140       0.00000000
Si       2.71282257       0.00071676       2.71471010       0.00000000
Si      -2.71450044      -0.00223173       2.71304359       0.00000000
Si      -0.00030951       2.71353933      -2.71543920       0.00000000
Si      -0.00425169      -2.71124565       2.71797368       0.00000000
Si      -2.71474479       2.71484253       0.00045135       0.00000000
Si       2.71516833      -2.71478520      -0.00013888       0.00000000
