10
Lattice="16.28999089631971 0.0 0.0 0.0 16.28999089631971 0.0 0.0 0.0 34.71893929493243" Properties=species:S:1:pos:R:3:initial_magmoms:R:1 pbc="T T T"
Si      -1.35373158       1.35357515      -1.36171228       0.00000000
Si       1.36264221      -1.36175024      -1.35893476       0.00000000
Si      -1.36858806      -1.36732142       1.35015087       0.00000000
Si       1.36098063       1.38089999       1.34921345       0.00000000
Si       0.07315839      -2.61823052       2.66971433       0.00000000
Si       2.64925899       0.08003810       2.76751764       0.00000000
Si      -2.71024875       2.70901392      -0.00493009       0.00000000
Si      -2.71106325      -2.71735517      -0.00260392       0.00000000
Si      -2.71062342      -0.00423240      -2.71835559       0.00000000
Si       2.71707426       2.71196241      -0.00326358       0.00000000
