10
Lattice="16.28999089631971 0.0 0.0 0.0 16.28999089631971 0.0 0.0 0.0 34.71893929493243" Properties=species:S:1:pos:R:3:initial_magmoms:R:1 pbc="T T T"
Si       0.38432997       0.22447620      -2.27561943       0.00000000
Si       1.69943796       0.28983982       1.56436684       0.00000000
Si      -2.07953253       0.52824397       1.00778721       0.00000000
Si       0.42937182      -2.50628070      -0.10957303       0.00000000
Si       1.62026856      -2.10113211       1.95627445       0.00000000
Si       2.09982987      -1.51348665      -2.25603794       0.00000000
Si      -2.65805559      -1.58679165       1.66807237       0.00000000
Si      -1.86676884      -3.14975199       0.03253166       0.00000000
Si       1.14126111       2.26764130       2.74727648       0.00000000
Si      -1.41944544      -0.79651488      -3.43176075       0.00000000
