10
Lattice="16.28999089631971 0.0 0.0 0.0 16.28999089631971 0.0 0.0 0.0 34.71893929493243" Properties=species:S:1:pos:R:3:initial_magmoms:R:1 pbc="T T T"
Si       1.52992422      -0.41658417       1.69237564       0.00000000
Si       0.55817685      -1.97780148      -1.18290964       0.00000000
Si       0.39926790       2.16008658      -0.90623426       0.00000000
Si      -1.96175583       0.93794562       0.99521895       0.00000000
Si       1.21578786       1.60202376       2.78189128       0.00000000
Si       3.46421511      -0.88097949       0.39346996       0.00000000
Si       1.48273209       3.13321860       1.02650073       0.00000000
Si      -3.60346203      -0.64306404       0.36413244       0.00000000
Si       2.84351724      -1.71826757      -1.67446066       0.00000000
Si      -1.10731275       1.51052283       3.22511351       0.00000000
