10
Lattice="16.28999089631971 0.0 0.0 0.0 16.28999089631971 0.0 0.0 0.0 34.71893929493243" Properties=species:S:1:pos:R:3:initial_magmoms:R:1 pbc="T T T"
Si      -1.69943796      -0.28983982      -1.56436684       0.00000000
Si       2.28534039       0.25953391      -0.49155102       0.00000000
Si      -0.55817685       1.97780148       1.18290964       0.00000000
Si      -0.07916940      -2.39097194       0.39190761       0.00000000
Si       0.97174737       1.56121731       2.87528528       0.00000000
Si       2.90603826       1.09682199       1.57637960       0.00000000
Si      -1.27006614      -2.79612053      -1.67393987       0.00000000
Si       2.21231232      -3.02923043      -0.03124706       0.00000000
Si      -3.77897049       0.23840415      -0.55657963       0.00000000
Si      -1.34524449      -3.01808807       2.31839319       0.00000000
