10
Lattice="16.28999089631971 0.0 0.0 0.0 16.28999089631971 0.0 0.0 0.0 34.71893929493243" Properties=species:S:1:pos:R:3:initial_magmoms:R:1 pbc="T T T"
Si       1.35513578      -1.35739683       1.36230250       0.00000000
Si      -1.36003974       1.35912357       1.36251082       0.00000000
Si       1.36526816       1.36638891      -1.36752076       0.00000000
Si      -1.37790187      -1.37748240      -1.36696179       0.00000000
Si       2.70979589      -2.71213350       0.00784648       0.00000000
Si      -2.71584015      -2.71058921       0.00579807       0.00000000
Si       2.70779222       2.71985985       0.00562447       0.00000000
Si       2.71307018       0.00125433       2.71974435       0.00000000
Si      -0.00184566      -2.71368431       2.72023041       0.00000000
Si      -2.71748544       2.71863810       0.00440931       0.00000000
