10
Lattice="16.28999089631971 0.0 0.0 0.0 16.28999089631971 0.0 0.0 0.0 34.71893929493243" Properties=species:S:1:pos:R:3:initial_magmoms:R:1 pbc="T T T"
Si       0.39972402      -0.37729988      -2.25576018       0.00000000
Si      -0.91536768      -1.80705689       1.23303136       0.00000000
Si      -1.73926701       1.67449797       0.11485452       0.00000000
Si       1.88076195       0.99365253       1.22851095       0.00000000
Si       0.15693786       2.33880417      -2.39404580       0.00000000
Si      -2.07834336      -0.36120289       2.69893871       0.00000000
Si       0.63451179       2.37995271       2.68434633       0.00000000
Si      -2.45607588      -2.81050460      -0.36364637       0.00000000
Si       2.60742627      -1.05310682      -2.61961487       0.00000000
Si      -3.22962282       1.45163448      -1.67543279       0.00000000
