10
Lattice="16.28999089631971 0.0 0.0 0.0 16.28999089631971 0.0 0.0 0.0 34.71893929493243" Properties=species:S:1:pos:R:3:initial_magmoms:R:1 pbc="T T T"
Si      -1.35656604      -1.35685926       1.35830982       0.00000000
Si       1.35725022      -1.35837423      -1.35747657       0.00000000
Si       1.35796698       1.35928647       1.35820566       0.00000000
Si      -1.35565380       1.36189287      -1.35837926       0.00000000
Si      -2.71554300       2.71331127       0.00149292       0.00000000
Si       0.00030951      -2.71353933       2.71543920       0.00000000
Si       2.71489140      -2.71474479      -0.00006944       0.00000000
Si      -2.71443528       0.00130320       2.71589054       0.00000000
Si      -2.71572219      -2.71534752       0.00034719       0.00000000
Si       2.71528236       0.00164529       2.71589054       0.00000000
