10
Lattice="16.28999089631971 0.0 0.0 0.0 16.28999089631971 0.0 0.0 0.0 34.71893929493243" Properties=species:S:1:pos:R:3:initial_magmoms:R:1 pbc="T T T"
Si       0.41519952      -0.96203853       2.17962151       0.00000000
Si       1.01527425      -1.28521584      -1.80899662       0.00000000
Si       2.20788144      -1.31536863       0.31792150       0.00000000
Si      -1.81806174       1.77451857       0.52186067       0.00000000
Si      -1.52570511       1.07885412      -1.87596950       0.00000000
Si       0.25005150       2.07223461      -3.16966733       0.00000000
Si      -2.53809603      -0.08531073       3.06321901       0.00000000
Si       1.83554091       3.19740120      -1.79927532       0.00000000
Si      -2.59182045      -0.79702083      -3.08238387       0.00000000
Si       2.89634571      -0.51390063      -2.98780943       0.00000000
