10
Lattice="16.28999089631971 0.0 0.0 0.0 16.28999089631971 0.0 0.0 0.0 34.71893929493243" Properties=species:S:1:pos:R:3:initial_magmoms:R:1 pbc="T T T"
Si      -1.53560943       1.27343817      -1.30633554       0.00000000
Si       2.22889554      -0.25132212      -0.85634312       0.00000000
Si       0.33690978       1.69275906       1.70692289       0.00000000
Si      -1.07821881      -2.11173786       0.52939468       0.00000000
Si       0.80490519      -3.15063261       1.64456764       0.00000000
Si       0.60452190       3.63234420       0.35007126       0.00000000
Si      -3.15762102       1.99316295       0.20227265       0.00000000
Si      -0.45159138       3.29494572      -1.71723442       0.00000000
Si       2.81665503       1.72502955      -1.98484815       0.00000000
Si       3.67430724      -0.91365723       0.91505288       0.00000000
