10
Lattice="16.28999089631971 0.0 0.0 0.0 16.28999089631971 0.0 0.0 0.0 34.71893929493243" Properties=species:S:1:pos:R:3:initial_magmoms:R:1 pbc="T T T"
Si       1.35625653       1.35588186      -1.35719881       0.00000000
Si       1.35755973      -1.35734796       1.35730297       0.00000000
Si      -1.35777150       1.35775521       1.35796263       0.00000000
Si      -1.35896067      -1.36018242      -1.35653915       0.00000000
Si       0.00058644      -2.71352304       2.71391156       0.00000000
Si       0.00092853      -2.71160082      -2.71641133       0.00000000
Si       2.71454931      -2.71420722       0.00017359       0.00000000
Si       2.71454931       2.71464705       0.00045135       0.00000000
Si      -2.71463076       2.71503801      -0.00034719       0.00000000
Si      -2.71547784       0.00013032       2.71464066       0.00000000
