10
Lattice="16.28999089631971 0.0 0.0 0.0 16.28999089631971 0.0 0.0 0.0 34.71893929493243" Properties=species:S:1:pos:R:3:initial_magmoms:R:1 pbc="T T T"
Si      -1.35697329      -1.35617508       1.35660859       0.00000000
Si       1.35698958      -1.35685926      -1.35712938       0.00000000
Si      -1.35755973       1.35734796      -1.35730297       0.00000000
Si       1.35860229       1.35863487       1.35688634       0.00000000
Si       2.71427238       0.00159642       2.71259224       0.00000000
Si      -0.00130320       2.71322982      -2.71450179       0.00000000
Si       2.71430496      -2.71450044       0.00055550       0.00000000
Si       2.71497285       0.00045612      -2.71432819       0.00000000
Si       2.71516833       2.71459818      -0.00024303       0.00000000
Si      -2.71541268      -2.71484253       0.00055550       0.00000000
