10
Lattice="16.28999089631971 0.0 0.0 0.0 16.28999089631971 0.0 0.0 0.0 34.71893929493243" Properties=species:S:1:pos:R:3:initial_magmoms:R:1 pbc="T T T"
Si       0.16819425       1.20418938       2.04133590       0.00000000
Si      -0.65435301      -1.72903689       1.53280731       0.00000000
Si       2.23808310       0.46177263      -0.77614232       0.00000000
Si      -1.64403567       0.35243415      -1.78049236       0.00000000
Si       0.36316926      -0.73555866       3.43634366       0.00000000
Si      -0.03417642       1.29469662      -3.32305569       0.00000000
Si      -1.90050543       2.25419391       2.04150949       0.00000000
Si       3.35604951       0.89738352       1.28231002       0.00000000
Si       0.52113339      -3.68225676       1.17718101       0.00000000
Si       2.13340356       2.31368499      -2.41380088       0.00000000
