10
Lattice="16.28999089631971 0.0 0.0 0.0 16.28999089631971 0.0 0.0 0.0 34.71893929493243" Properties=species:S:1:pos:R:3:initial_magmoms:R:1 pbc="T T T"
Si       0.26761212       1.93958514      -1.35685162       0.00000000
Si       2.07164817       0.11184714       1.18770086       0.00000000
Si      -1.75606200      -0.20955456       1.61793819       0.00000000
Si      -0.33690978      -1.69275906      -1.70692289       0.00000000
Si      -1.87251921      -0.41932089      -3.01325843       0.00000000
Si      -0.77537142      -1.96605639       2.97576195       0.00000000
Si       2.54303190       1.72107108      -2.05591786       0.00000000
Si       2.69206911      -2.13744348       1.43184458       0.00000000
Si       1.89198576      -1.94408118      -2.56326600       0.00000000
Si       1.59560550       1.07909847       3.24070232       0.00000000
