10
Lattice="16.28999089631971 0.0 0.0 0.0 16.28999089631971 0.0 0.0 0.0 34.71893929493243" Properties=species:S:1:pos:R:3:initial_magmoms:R:1 pbc="T T T"
Si       1.06546374       1.67803290       1.32355757       0.00000000
Si      -1.73859912      -0.91425996       1.39365515       0.00000000
Si       1.62989595      -1.98560439       0.01013794       0.00000000
Si      -0.00794952       0.36888705      -2.61110873       0.00000000
Si       0.30964032      -2.68079643      -1.97564763       0.00000000
Si       2.30749479       0.32835753       2.82177785       0.00000000
Si      -0.41881590      -2.38725063       2.80525510       0.00000000
Si       1.67826096      -1.24773255      -3.19143612       0.00000000
Si       2.75980293       2.72753244       0.09787274       0.00000000
Si       3.53031993      -1.06873803       1.33802496       0.00000000
