10
Lattice="16.28999089631971 0.0 0.0 0.0 16.28999089631971 0.0 0.0 0.0 34.71893929493243" Properties=species:S:1:pos:R:3:initial_magmoms:R:1 pbc="T T T"
Si       1.35677781       1.35821069      -1.35917780       0.00000000
Si      -1.35870003      -1.35711990      -1.35910836       0.00000000
Si       1.35824391      -1.36016613       1.35730297       0.00000000
Si      -1.36264221       1.36175024       1.35893476       0.00000000
Si      -2.71500543      -2.71389771      -0.00222201       0.00000000
Si       2.71477737      -2.71562445      -0.00190954       0.00000000
Si       2.71471221      -0.00013032      -2.71592526       0.00000000
Si      -0.00073305      -2.71531494      -2.71599470       0.00000000
Si      -2.71637379       2.71532538      -0.00277752       0.00000000
Si      -2.71578735       0.00021177      -2.71606414       0.00000000
