10
Lattice="16.28999089631971 0.0 0.0 0.0 16.28999089631971 0.0 0.0 0.0 34.71893929493243" Properties=species:S:1:pos:R:3:initial_magmoms:R:1 pbc="T T T"
Si      -2.29614066      -0.64347129       0.14210470       0.00000000
Si       1.19089674       0.40514859       2.06584748       0.00000000
Si      -0.42937182       2.50628070       0.10957303       0.00000000
Si       0.00356751      -2.07897867      -1.73084425       0.00000000
Si       1.67045805       0.99279405      -2.14646490       0.00000000
Si      -0.04504185       2.73075690      -2.16604640       0.00000000
Si       1.27006614       2.79612053       1.67393987       0.00000000
Si       0.95791716      -0.84361023      -3.41342914       0.00000000
Si      -3.08742741       0.91948905       1.77764540       0.00000000
Si       1.63931157      -3.40589691      -0.61688646       0.00000000
