10
Lattice="16.28999089631971 0.0 0.0 0.0 16.28999089631971 0.0 0.0 0.0 34.71893929493243" Properties=species:S:1:pos:R:3:initial_magmoms:R:1 pbc="T T T"
Si       0.95434965       1.23536844      -1.68258490       0.00000000
Si       1.63574406      -1.32691824       1.11395779       0.00000000
Si      -1.68752997      -1.47719349      -1.31053653       0.00000000
Si      -0.00356751       2.07897867       1.73084425       0.00000000
Si      -2.29970817       1.43550738       1.87294895       0.00000000
Si       0.02588481      -2.26918071       2.65652112       0.00000000
Si       1.66689054       3.07177272      -0.41562065       0.00000000
Si       2.26409823      -0.22310784      -2.98062260       0.00000000
Si      -2.03792787      -0.88484022       3.18268694       0.00000000
Si      -0.48739680       2.48627754      -3.00214836       0.00000000
