10
Lattice="16.28999089631971 0.0 0.0 0.0 16.28999089631971 0.0 0.0 0.0 34.71893929493243" Properties=species:S:1:pos:R:3:initial_magmoms:R:1 pbc="T T T"
Si      -0.95434965      -1.23536844       1.68258490       0.00000000
Si      -1.44174645       1.25090910      -1.31956346       0.00000000
Si       0.71254089       1.83640428       1.26696424       0.00000000
Si       1.30974858      -1.45847628      -1.29803771       0.00000000
Si      -0.95791716       0.84361023       3.41342914       0.00000000
Si       2.57610060       2.69826861       0.09780331       0.00000000
Si      -0.07315839       2.61823052      -2.66971433       0.00000000
Si       2.64772773      -0.10368585      -2.67134612       0.00000000
Si      -2.80673442       2.55337605       0.09124142       0.00000000
Si      -2.64187962      -2.71256193       0.37204836       0.00000000
