10
Lattice="16.28999089631971 0.0 0.0 0.0 16.28999089631971 0.0 0.0 0.0 34.71893929493243" Properties=species:S:1:pos:R:3:initial_magmoms:R:1 pbc="T T T"
Si       0.35209206       2.14184178       0.75117939       0.00000000
Si      -1.45751517      -0.41562306       1.81607929       0.00000000
Si       2.26422855      -0.83800647      -0.26282252       0.00000000
Si      -1.49214771       0.76999572      -1.82521038       0.00000000
Si      -0.11083716      -0.71356716      -3.12727549       0.00000000
Si      -1.75611087      -2.64719016       1.03670811       0.00000000
Si       2.20830498      -1.13251338      -2.61055322       0.00000000
Si       0.52597152      -3.53188377       0.98695584       0.00000000
Si      -3.45833442       1.08032022       1.60988340       0.00000000
Si       0.32734755       3.88018745      -0.79582797       0.00000000
