10
Lattice="16.28999089631971 0.0 0.0 0.0 16.28999089631971 0.0 0.0 0.0 34.71893929493243" Properties=species:S:1:pos:R:3:initial_magmoms:R:1 pbc="T T T"
Si      -1.36386396      -1.34822556      -1.44864855       0.00000000
Si      -2.05087842       0.20815362       1.24755634       0.00000000
Si       1.44031293      -1.08913311       1.64689381       0.00000000
Si       1.41411861       1.52549334      -1.32178548       0.00000000
Si       2.47588452      -2.49326595      -0.02399080       0.00000000
Si      -1.86852816      -1.66452849       2.66895051       0.00000000
Si       0.04702923      -3.01630527       2.29530508       0.00000000
Si      -2.92350929      -2.53009764      -0.03614244       0.00000000
Si      -0.00715131      -2.65264731      -2.91330254       0.00000000
Si       2.69928558       0.08755875      -2.90778223       0.00000000
