10
Lattice="16.28999089631971 0.0 0.0 0.0 16.28999089631971 0.0 0.0 0.0 34.71893929493243" Properties=species:S:1:pos:R:3:initial_magmoms:R:1 pbc="T T T"
Si      -1.02081285      -0.18689517      -2.10115666       0.00000000
Si      -1.22007213      -1.70759925       1.08975868       0.00000000
Si       2.29763934      -0.31703598      -0.55473952       0.00000000
Si      -0.70635069       2.27841714       0.08651965       0.00000000
Si       2.34044946       1.38895056      -2.17368457       0.00000000
Si       0.79102611       3.14465322      -1.65203221       0.00000000
Si      -3.01578399       2.12084397      -0.78572475       0.00000000
Si      -0.41260941      -3.77356221       0.24160923       0.00000000
Si      -3.50388126      -0.17591571      -1.47083397       0.00000000
Si      -3.53921427      -1.28865303       0.57303641       0.00000000
