10
Lattice="16.28999089631971 0.0 0.0 0.0 16.28999089631971 0.0 0.0 0.0 34.71893929493243" Properties=species:S:1:pos:R:3:initial_magmoms:R:1 pbc="T T T"
Si       1.35703255       1.35534918      -1.35782376       0.00000000
Si      -1.36068741       1.35617997       1.35754600       0.00000000
Si      -1.35834165      -1.35932199      -1.35730297       0.00000000
Si       1.35853713      -1.36170334       1.36376070       0.00000000
Si      -2.71520091       2.71141023      -0.00006944       0.00000000
Si      -2.71678104       0.02511755       2.71002304       0.00000000
Si      -0.00096111       2.71264827      -2.71453650       0.00000000
Si       2.71470799       2.71259940       0.00093741       0.00000000
Si       2.71420626      -0.00232295      -2.71446707       0.00000000
Si      -2.71630863      -0.00172348      -2.71436291       0.00000000
