10
Lattice="16.28999089631971 0.0 0.0 0.0 16.28999089631971 0.0 0.0 0.0 34.71893929493243" Properties=species:S:1:pos:R:3:initial_magmoms:R:1 pbc="T T T"
Si      -1.42311069      -1.30734255       1.33945743       0.00000000
Si      -1.34260551       1.35083196      -1.40715940       0.00000000
Si       1.18196886       1.44137178       1.47441002       0.00000000
Si       1.38889259      -1.37244064      -1.39771584       0.00000000
Si      -1.99153395       0.22056660       2.97728958       0.00000000
Si       2.74161419       2.62324386       0.06190390       0.00000000
Si      -2.75947713      -2.65049491      -0.01551937       0.00000000
Si       0.02293632       2.69721675      -2.77949568       0.00000000
Si      -2.69166186      -0.01857060      -2.78630059       0.00000000
Si       0.02756268      -2.73645390      -2.78008590       0.00000000
