10
Lattice="16.28999089631971 0.0 0.0 0.0 16.28999089631971 0.0 0.0 0.0 34.71893929493243" Properties=species:S:1:pos:R:3:initial_magmoms:R:1 pbc="T T T"
Si       1.07997391       0.93199977       1.83965346       0.00000000
Si      -1.85220558      -1.23927804       0.73458373       0.00000000
Si       0.18951786       1.02519486      -2.12750835       0.00000000
Si       1.21386468      -2.03869024      -0.29181285       0.00000000
Si      -0.20489562      -2.70774335       1.58481631       0.00000000
Si      -1.72634904      -0.40650066      -2.83855263       0.00000000
Si      -1.36138788       2.77172721      -1.29963478       0.00000000
Si       2.50213490       1.67987367      -1.63633924       0.00000000
Si       2.48592635       2.36608992       0.61896960       0.00000000
Si      -2.47290345      -2.07656612      -1.33334689       0.00000000
