10
Lattice="16.28999089631971 0.0 0.0 0.0 16.28999089631971 0.0 0.0 0.0 34.71893929493243" Properties=species:S:1:pos:R:3:initial_magmoms:R:1 pbc="T T T"
Si      -0.58241637       2.03170509      -1.06677472       0.00000000
Si      -0.12696426       0.70079580       2.26190544       0.00000000
Si      -1.52275662      -1.83566308      -0.12540488       0.00000000
Si       2.23755109      -0.73425546      -0.59598565       0.00000000
Si       1.74280194      -0.61007679       3.08075208       0.00000000
Si       0.02666673      -3.59136575      -0.64705723       0.00000000
Si       3.43479115      -0.35533377       1.40337503       0.00000000
Si       0.34339320       2.99011095       2.33321818       0.00000000
Si      -1.10201850       3.65244606       0.56182219       0.00000000
Si      -3.00961008      -1.57847982      -1.96460700       0.00000000
