10
Lattice="16.28999089631971 0.0 0.0 0.0 16.28999089631971 0.0 0.0 0.0 34.71893929493243" Properties=species:S:1:pos:R:3:initial_magmoms:R:1 pbc="T T T"
Si       1.76390793       0.64573560       1.46618163       0.00000000
Si      -0.87620652      -1.27817693       1.81048954       0.00000000
Si       1.69198921       0.25474302      -1.67737705       0.00000000
Si      -1.86976620       1.31087259      -0.81884664       0.00000000
Si       0.43335377      -0.02073717       3.40658951       0.00000000
Si      -1.74280194       0.61007679      -3.08075208       0.00000000
Si       1.45617843       2.97856134       1.40820096       0.00000000
Si       0.49474915      -0.12417867      -3.67673773       0.00000000
Si      -0.13431105      -3.53272175       1.63068005       0.00000000
Si      -1.39940874       3.60018774      -0.74753390       0.00000000
