10
Lattice="16.28999089631971 0.0 0.0 0.0 16.28999089631971 0.0 0.0 0.0 34.71893929493243" Properties=species:S:1:pos:R:3:initial_magmoms:R:1 pbc="T T T"
Si       0.47035746       2.28931515       0.07131274       0.00000000
Si       0.12696426      -0.70079580      -2.26190544       0.00000000
Si       1.86976620      -1.31087259       0.81884664       0.00000000
Si      -2.39904459       0.05233977       0.80082750       0.00000000
Si      -0.97505424       2.95165026      -1.70008325       0.00000000
Si      -0.17497089       2.75828796       2.29502733       0.00000000
Si      -0.45545211       1.33090929      -3.32868017       0.00000000
Si      -1.39579236      -2.53645889      -2.38731032       0.00000000
Si      -2.11059756       1.45391508       2.74835277       0.00000000
Si       3.56175541      -1.05612957      -0.85853041       0.00000000
