10
Lattice="16.28999089631971 0.0 0.0 0.0 16.28999089631971 0.0 0.0 0.0 34.71893929493243" Properties=species:S:1:pos:R:3:initial_magmoms:R:1 pbc="T T T"
Si       0.57171384       1.75523121      -1.49666487       0.00000000
Si       1.18888397      -1.98954657      -1.02743814       0.00000000
Si       1.29024849       0.75675195       2.06758343       0.00000000
Si      -2.62975986      -0.83409687      -0.77812130       0.00000000
Si      -2.51703306      -0.66285639       2.14618715       0.00000000
Si      -0.51129423       0.05602131       3.44605945       0.00000000
Si      -1.28920689       2.10035115      -2.95784697       0.00000000
Si       2.21170863       1.00975194      -3.02582669       0.00000000
Si       3.26426255      -0.79120530       2.35831933       0.00000000
Si       2.51943813      -1.32307380      -2.96784603       0.00000000
