10
Lattice="16.28999089631971 0.0 0.0 0.0 16.28999089631971 0.0 0.0 0.0 34.71893929493243" Properties=species:S:1:pos:R:3:initial_magmoms:R:1 pbc="T T T"
Si       1.34001540      -1.16921475       1.51482289       0.00000000
Si      -1.30627881       1.41692049       1.33296498       0.00000000
Si      -1.36287027      -1.34944731      -1.35237288       0.00000000
Si       1.35166275       1.36578618      -1.35699050       0.00000000
Si      -0.54105606      -1.94052996       2.69363569       0.00000000
Si       2.11695066       0.87079824       2.88268042       0.00000000
Si       0.27921060       2.54208708       2.70335700       0.00000000
Si       2.69860140      -2.69537598       0.02437271       0.00000000
Si       2.70943425       0.00708615      -2.71144652       0.00000000
Si      -0.00496845      -2.70954828      -2.71238393       0.00000000
