10
Lattice="16.28999089631971 0.0 0.0 0.0 16.28999089631971 0.0 0.0 0.0 34.71893929493243" Properties=species:S:1:pos:R:3:initial_magmoms:R:1 pbc="T T T"
Si       1.63999479      -0.74547927      -1.52916182       0.00000000
Si      -0.57171384      -1.75523121       1.49666487       0.00000000
Si      -1.86092073       0.34511994      -1.46118210       0.00000000
Si       1.03964802       2.18795877       1.09861201       0.00000000
Si       0.71853465      -0.99847926       3.56424830       0.00000000
Si       1.10121444       0.22851612      -3.64132439       0.00000000
Si       0.61717013      -3.74477778       0.46922673       0.00000000
Si      -1.21559238      -0.12385287      -3.68489668       0.00000000
Si       2.29966649       2.99779983      -0.92883630       0.00000000
Si       1.94772429      -3.07830501      -1.47118116       0.00000000
