10
Lattice="16.28999089631971 0.0 0.0 0.0 16.28999089631971 0.0 0.0 0.0 34.71893929493243" Properties=species:S:1:pos:R:3:initial_magmoms:R:1 pbc="T T T"
Si       1.35567009      -1.35703845       1.35570590       0.00000000
Si       1.35656604       1.35596331      -1.35712938       0.00000000
Si      -1.35860229      -1.35863487      -1.35688634       0.00000000
Si      -1.36313091       1.35529542       1.35973330       0.00000000
Si       2.71389771       2.71305063       0.00034719       0.00000000
Si      -0.00161271       2.71336014      -2.71373797       0.00000000
Si       2.71313208      -0.00089595      -2.71411988       0.00000000
Si       2.71344159      -2.71573848       0.00124988       0.00000000
Si      -0.00161271      -2.71549413      -2.71401572       0.00000000
Si      -2.71616202      -0.00128691      -2.71418932       0.00000000
