10
Lattice="16.28999089631971 0.0 0.0 0.0 16.28999089631971 0.0 0.0 0.0 34.71893929493243" Properties=species:S:1:pos:R:3:initial_magmoms:R:1 pbc="T T T"
Si       0.28175184      -0.83743632       2.16687965       0.00000000
Si      -0.64246131       2.22752718      -0.42516837       0.00000000
Si      -1.18416897      -1.90003302      -0.79398787       0.00000000
Si       2.04795178      -0.55649898      -1.15062101       0.00000000
Si      -0.18288783      -2.96833122       1.14582979       0.00000000
Si       1.35928225       3.20530185       0.16120013       0.00000000
Si      -1.76042772       1.79191629      -2.48362071       0.00000000
Si      -1.81587888      -0.25780554       3.12626864       0.00000000
Si       2.20548096       0.38294532       2.85278740       0.00000000
Si       1.26232092       2.61765639       2.49125888       0.00000000
