10
Lattice="16.28999089631971 0.0 0.0 0.0 16.28999089631971 0.0 0.0 0.0 34.71893929493243" Properties=species:S:1:pos:R:3:initial_magmoms:R:1 pbc="T T T"
Si      -0.79988787      -1.69354098       1.41129095       0.00000000
Si      -0.96335802       0.36645984      -2.16330360       0.00000000
Si      -0.36505890       1.98149931       1.31400843       0.00000000
Si       2.21502528      -0.50687964      -0.85957198       0.00000000
Si      -0.86317452      -3.38234157      -0.22456222       0.00000000
Si      -0.32224878       3.68748585      -0.30493661       0.00000000
Si      -1.10545569       2.71243161      -2.30443616       0.00000000
Si       1.40194998       2.04540498       2.92170453       0.00000000
Si       3.75960887       0.94064976       0.09110255       0.00000000
Si       0.31024305      -0.89700885      -3.77599923       0.00000000
