10
Lattice="16.28999089631971 0.0 0.0 0.0 16.28999089631971 0.0 0.0 0.0 34.71893929493243" Properties=species:S:1:pos:R:3:initial_magmoms:R:1 pbc="T T T"
Si       2.25892615       0.36165429       0.35843853       0.00000000
Si       0.30772950      -2.33282574       0.05798066       0.00000000
Si      -1.63999479       0.74547927       1.52916182       0.00000000
Si      -0.53878035       0.97399539      -2.11216257       0.00000000
Si       2.82554122       0.27777708      -1.95040694       0.00000000
Si       1.00438438      -0.45657612      -3.27253961       0.00000000
Si      -1.45617843      -2.97856134      -1.40820096       0.00000000
Si      -2.85558717       0.62162640      -2.15573486       0.00000000
Si      -0.31456316       3.30252057      -1.56145045       0.00000000
Si      -3.50091552       1.09059921       0.06797972       0.00000000
