10
Lattice="16.28999089631971 0.0 0.0 0.0 16.28999089631971 0.0 0.0 0.0 34.71893929493243" Properties=species:S:1:pos:R:3:initial_magmoms:R:1 pbc="T T T"
Si      -0.02769300       1.35249354       1.95901724       0.00000000
Si      -2.16576269       0.42624414      -0.99153874       0.00000000
Si       1.83335805       0.70332075      -1.44271161       0.00000000
Si       0.02088378      -2.44042119       0.21213284       0.00000000
Si      -2.20746509       0.46138167       2.64350152       0.00000000
Si      -0.95335107      -2.88117972      -1.94964313       0.00000000
Si      -3.24363941       1.60787187       0.79763336       0.00000000
Si      -0.16265565       3.62929797       0.98459495       0.00000000
Si      -3.04051940      -1.68497244      -1.82906418       0.00000000
Si       3.80400822      -0.54252216      -0.87752168       0.00000000
