10
Lattice="16.28999089631971 0.0 0.0 0.0 16.28999089631971 0.0 0.0 0.0 34.71893929493243" Properties=species:S:1:pos:R:3:initial_magmoms:R:1 pbc="T T T"
Si       1.57685082       0.71434908      -1.60401589       0.00000000
Si      -0.22421719      -2.32852518      -0.55071212       0.00000000
Si      -2.08716832       1.19620728       0.12057894       0.00000000
Si       0.97423485       0.44075853       2.16177596       0.00000000
Si       0.95335107       2.88117972       1.94964313       0.00000000
Si       3.40305756      -0.72151668      -0.99869085       0.00000000
Si      -1.21241161       3.30742386       0.95810438       0.00000000
Si       0.31456316      -3.30252057       1.56145045       0.00000000
Si      -2.54102401      -2.68089417      -0.59428442       0.00000000
Si       0.62268362       0.59854347      -3.76766668       0.00000000
