10
Lattice="16.28999089631971 0.0 0.0 0.0 16.28999089631971 0.0 0.0 0.0 34.71893929493243" Properties=species:S:1:pos:R:3:initial_magmoms:R:1 pbc="T T T"
Si       1.31708022      -1.36506942      -1.30999145       0.00000000
Si       1.37461324       1.33639902       1.34091909       0.00000000
Si      -1.33592288      -1.38251601       1.33789855       0.00000000
Si      -1.25856167       1.36792017      -1.50537239       0.00000000
Si      -0.63454064      -2.09764701      -2.44837854       0.00000000
Si       2.31767066       0.37564740      -2.44782651       0.00000000
Si       0.72114641       2.15891370      -2.70012029       0.00000000
Si      -2.24439989      -0.34668378      -2.74569126       0.00000000
Si      -2.69094137       2.69294877      -0.05394979       0.00000000
Si       0.02085742       2.68912601       2.69686803       0.00000000
