10
Lattice="16.28999089631971 0.0 0.0 0.0 16.28999089631971 0.0 0.0 0.0 34.71893929493243" Properties=species:S:1:pos:R:3:initial_magmoms:R:1 pbc="T T T"
Si       1.35980286       1.35166275      -1.37278763       0.00000000
Si      -1.35503056      -1.36322865      -1.37455829       0.00000000
Si       1.28473854      -1.32265026       1.50187272       0.00000000
Si      -1.24634073       1.41677388       1.47083397       0.00000000
Si      -2.11098430      -0.33963021       2.92968989       0.00000000
Si      -0.42282161      -2.19838437       2.91448299       0.00000000
Si       2.30737587       0.47146518       2.83848319       0.00000000
Si       0.58353549       2.44047006       2.89747070       0.00000000
Si      -2.69905330      -2.72336220      -0.02426855       0.00000000
Si      -2.71881307       2.71365336       0.02173407       0.00000000
