10
Lattice="16.28999089631971 0.0 0.0 0.0 16.28999089631971 0.0 0.0 0.0 34.71893929493243" Properties=species:S:1:pos:R:3:initial_magmoms:R:1 pbc="T T T"
Si       0.96347042       1.82912265       1.08850879       0.00000000
Si       1.79808857      -1.47874104       0.63601660       0.00000000
Si      -1.05602436      -0.38846763      -2.22055516       0.00000000
Si      -2.81171169      -0.13900257      -0.14422255       0.00000000
Si       0.63213834      -2.24722179      -2.23576206       0.00000000
Si       1.63849544       2.39163264      -2.25277435       0.00000000
Si      -2.70703215      -1.99091493       1.49343601       0.00000000
Si       0.19748367       1.62828324       3.32760388       0.00000000
Si       0.50674118       3.74922495      -0.16397764       0.00000000
Si       0.89067367      -3.70734336       0.51734720       0.00000000
