10
Lattice="16.28999089631971 0.0 0.0 0.0 16.28999089631971 0.0 0.0 0.0 34.53561885213415" Properties=species:S:1:pos:R:3:initial_magmoms:R:1 pbc="T T T"
Si      -1.35720425      -1.35493378       1.37770949       0.00000000
Si       1.36742924       1.35948195       1.37525746       0.00000000
Si       1.26457418      -1.56740099      -1.28900470       0.00000000
Si      -1.46273087       1.36519974      -1.35046778       0.00000000
Si      -2.68933529      -2.70050946      -0.00872716       0.00000000
Si      -2.70479450       2.70612738       0.05487022       0.00000000
Si       2.71395086       2.70221778      -0.01247082       0.00000000
Si      -2.70891587       0.00091224       2.73706674       0.00000000
Si       2.72323616      -2.72499560       0.04914076       0.00000000
Si       0.00711860      -2.71323518       2.73606521       0.00000000
