10
Lattice="16.28999089631971 0.0 0.0 0.0 16.28999089631971 0.0 0.0 0.0 34.53561885213415" Properties=species:S:1:pos:R:3:initial_magmoms:R:1 pbc="T T T"
Si      -1.35617508      -1.37153117      -1.32946666       0.00000000
Si      -1.36010097       1.35269879       1.35759594       0.00000000
Si       1.35571896      -1.36076550       1.35700883       0.00000000
Si       1.35646830       1.36059944      -1.37967802       0.00000000
Si      -0.01251072      -2.59582520      -2.78241204       0.00000000
Si       2.63164950      -0.14190056      -2.74710625       0.00000000
Si       2.71549413       2.70915080       0.00207214       0.00000000
Si      -2.71198201       2.71294637      -0.00334996       0.00000000
Si      -0.00128691       2.71182236       2.71481198       0.00000000
Si       2.71386513      -0.00296967       2.71481198       0.00000000
