10
Lattice="16.28999089631971 0.0 0.0 0.0 16.28999089631971 0.0 0.0 0.0 34.53561885213415" Properties=species:S:1:pos:R:3:initial_magmoms:R:1 pbc="T T T"
Si       1.51089750      -1.66802499      -0.63151868       0.00000000
Si      -2.33409636       0.37935989      -0.00303914       0.00000000
Si       0.75825063      -0.11025072       2.26539972       0.00000000
Si       0.62560116       1.62063997      -1.65636374       0.00000000
Si       0.95874795       3.38528680      -0.11289700       0.00000000
Si      -0.55053684       3.16007755       1.71683564       0.00000000
Si       3.56736339      -0.82519668       0.11020322       0.00000000
Si      -0.30095775      -1.96727229       3.24013357       0.00000000
Si       1.82692350      -1.46775573      -3.02128123       0.00000000
Si       3.10765959      -0.27654881       2.30981255       0.00000000
