10
Lattice="16.28999089631971 0.0 0.0 0.0 16.28999089631971 0.0 0.0 0.0 34.53561885213415" Properties=species:S:1:pos:R:3:initial_magmoms:R:1 pbc="T T T"
Si       0.62302734      -1.39162212       1.76418400       0.00000000
Si      -0.55092780       2.02227318       1.03178673       0.00000000
Si       1.50928479       0.22520925      -1.82973264       0.00000000
Si      -2.26900152      -0.24184134      -0.78012553       0.00000000
Si      -2.29073238       2.21239377      -0.48950814       0.00000000
Si       1.30878747      -3.27032827       0.54856408       0.00000000
Si       0.55053684      -3.16007755      -1.71683564       0.00000000
Si      -1.78355952      -2.78071766      -1.71987478       0.00000000
Si      -1.66319271       1.42107444       3.02252452       0.00000000
Si       0.91375497       2.32077114      -2.81928228       0.00000000
