10
Lattice="16.28999089631971 0.0 0.0 0.0 16.28999089631971 0.0 0.0 0.0 34.53561885213415" Properties=species:S:1:pos:R:3:initial_magmoms:R:1 pbc="T T T"
Si      -1.87115574      -0.93868048       1.20349792       0.00000000
Si       1.89553698       0.79868290       1.29791835       0.00000000
Si      -1.33008339       1.37252421      -1.51642534       0.00000000
Si       1.34820927      -1.35322840      -1.52488657       0.00000000
Si       2.77345395      -2.62091620      -0.12885247       0.00000000
Si      -2.61512720       2.81701879      -0.08692620       0.00000000
Si       2.79494046       2.71067767      -0.11614335       0.00000000
Si      -3.69138635       0.91778235       0.93232409       0.00000000
Si      -2.70113354       0.00073124      -2.89287773       0.00000000
Si       0.01448181      -2.71228681      -2.89363751       0.00000000
