10
Lattice="16.28999089631971 0.0 0.0 0.0 16.28999089631971 0.0 0.0 0.0 34.53561885213415" Properties=species:S:1:pos:R:3:initial_magmoms:R:1 pbc="T T T"
Si      -1.35752715      -1.35661491      -1.35908097       0.00000000
Si       1.35769005       1.35870003      -1.35894283       0.00000000
Si       1.36031274      -1.35827649       1.35790676       0.00000000
Si      -1.35672894       1.36104579       1.35984075       0.00000000
Si       2.69431713       0.01413972       2.73321947       0.00000000
Si      -2.71556092      -2.71511946      -0.00110514       0.00000000
Si       0.00027693      -2.71419093      -2.71653876       0.00000000
Si       2.71524978       2.71614573      -0.00100153       0.00000000
Si      -2.71492398       0.00114030      -2.71664237       0.00000000
Si       2.71604799      -2.71575477      -0.00227935       0.00000000
