10
Lattice="16.28999089631971 0.0 0.0 0.0 16.28999089631971 0.0 0.0 0.0 34.53561885213415" Properties=species:S:1:pos:R:3:initial_magmoms:R:1 pbc="T T T"
Si       1.36624230       1.72675629       0.78523680       0.00000000
Si      -2.34546678       0.08920404       0.14857232       0.00000000
Si       0.59552982      -2.09556189       0.98954964       0.00000000
Si      -0.12745296       1.57595976      -2.23155479       0.00000000
Si      -0.09997173       3.54392208       0.41080142       0.00000000
Si      -1.04673024      -1.23334848      -3.22431625       0.00000000
Si      -3.08602647      -2.13749235      -0.25307716       0.00000000
Si      -0.91375497      -2.32077114       2.81928228       0.00000000
Si       3.57759351       1.24263378       0.10395227       0.00000000
Si       0.26238303      -3.86020872      -0.55391710       0.00000000
