10
Lattice="16.28999089631971 0.0 0.0 0.0 16.28999089631971 0.0 0.0 0.0 34.53561885213415" Properties=species:S:1:pos:R:3:initial_magmoms:R:1 pbc="T T T"
Si       1.17507263       1.34788347      -1.53117205       0.00000000
Si      -1.43287068      -1.18579797      -1.58193944       0.00000000
Si       0.60844127      -1.50358329       1.83166664       0.00000000
Si      -0.68326613       1.96934697       1.32641025       0.00000000
Si      -2.99970317       1.39385385       1.22138738       0.00000000
Si       2.10990686       3.15835407      -0.17744411       0.00000000
Si       0.90410477      -0.17552475       3.83152184       0.00000000
Si       2.55504740       0.07359822      -3.01250918       0.00000000
Si      -0.14782686      -2.63029254      -3.01143858       0.00000000
Si      -2.50912982      -3.08503441      -0.56268915       0.00000000
