10
Lattice="16.28999089631971 0.0 0.0 0.0 16.28999089631971 0.0 0.0 0.0 34.53561885213415" Properties=species:S:1:pos:R:3:initial_magmoms:R:1 pbc="T T T"
Si      -1.35816246       1.35500220      -1.36111857       0.00000000
Si      -1.36497168      -1.34459289       1.36512470       0.00000000
Si       1.35772263      -1.35881406      -1.36015157       0.00000000
Si       1.37181348       1.34917038       1.38753833       0.00000000
Si       2.71529865       2.71166598       0.00037989       0.00000000
Si      -2.71425609      -2.71391400       0.00069071       0.00000000
Si      -2.71399545       2.71437012       0.00010361       0.00000000
Si       0.00000000       2.71365336      -2.71850729       0.00000000
Si       2.71653669      -2.71609686      -0.00179585       0.00000000
Si      -2.71480995      -0.00174303      -2.71802379       0.00000000
