10
Lattice="16.28999089631971 0.0 0.0 0.0 16.28999089631971 0.0 0.0 0.0 34.53561885213415" Properties=species:S:1:pos:R:3:initial_magmoms:R:1 pbc="T T T"
Si       1.84197546       1.38862476       0.65051328       0.00000000
Si      -0.05310540      -1.26125325       2.06519663       0.00000000
Si       0.70089354      -1.73130120      -1.54612598       0.00000000
Si      -1.78823475       1.38445452      -1.41454520       0.00000000
Si       1.95740640      -0.10389762      -2.90748630       0.00000000
Si       1.38601836      -3.14072829       1.22225077       0.00000000
Si       0.66238398       3.55333770       0.84574324       0.00000000
Si      -2.84804586       2.31720363       0.57643434       0.00000000
Si      -2.30029461      -1.38583917       2.57846528       0.00000000
Si       3.40899201       0.95926923      -1.23167900       0.00000000
