10
Lattice="16.28999089631971 0.0 0.0 0.0 16.28999089631971 0.0 0.0 0.0 34.53561885213415" Properties=species:S:1:pos:R:3:initial_magmoms:R:1 pbc="T T T"
Si      -1.05981111       0.93274911       1.99097954       0.00000000
Si       1.03404033       1.51084863      -1.62448735       0.00000000
Si      -1.68459777      -1.32770016      -1.48613758       0.00000000
Si       1.78823475      -1.38445452       1.41454520       0.00000000
Si      -2.07800127      -2.70852201       0.54182963       0.00000000
Si      -1.90775448      -1.34920296       2.64256342       0.00000000
Si       1.96621929       3.14113554      -0.17630443       0.00000000
Si       2.36087712       0.05427828      -3.00183767       0.00000000
Si       2.45061873       2.16888318       2.26028845       0.00000000
Si       2.48912829      -3.11575572      -0.13158078       0.00000000
