10
Lattice="16.28999089631971 0.0 0.0 0.0 16.28999089631971 0.0 0.0 0.0 34.53561885213415" Properties=species:S:1:pos:R:3:initial_magmoms:R:1 pbc="T T T"
Si       0.20590560       2.01464946      -1.15500988       0.00000000
Si      -0.04932612      -1.78569351      -1.54574609       0.00000000
Si       1.96819038      -0.43640910       1.30206263       0.00000000
Si      -1.95076008      -0.46397178       1.36408864       0.00000000
Si       0.99048087      -2.36380932       2.19764080       0.00000000
Si       0.87594588      -3.34945206       0.04493087       0.00000000
Si      -0.77965569      -1.22494284       3.21599316       0.00000000
Si       2.26201311       1.84033017      -2.34966668       0.00000000
Si      -2.32611426      -1.78818588      -2.33077568       0.00000000
Si       0.91512333       3.60224028       0.52183349       0.00000000
