10
Lattice="16.28999089631971 0.0 0.0 0.0 16.28999089631971 0.0 0.0 0.0 34.53561885213415" Properties=species:S:1:pos:R:3:initial_magmoms:R:1 pbc="T T T"
Si      -1.31994612      -1.54474812       1.13463386       0.00000000
Si       1.83681153       1.05565716       1.05212822       0.00000000
Si      -1.86048090       1.50078141      -0.02085953       0.00000000
Si       0.70920144      -0.58297023      -2.23044965       0.00000000
Si      -0.26575506       3.23965746       0.35727118       0.00000000
Si       0.28812123       2.38602888       2.53495038       0.00000000
Si       0.29419740      -2.84959341      -2.03708462       0.00000000
Si      -1.06288992       0.19044639      -3.51700578       0.00000000
Si      -2.71697652       1.15716015      -2.19992015       0.00000000
Si       0.19435599      -2.93167872       2.30031525       0.00000000
