10
Lattice="16.28999089631971 0.0 0.0 0.0 16.28999089631971 0.0 0.0 0.0 34.53561885213415" Properties=species:S:1:pos:R:3:initial_magmoms:R:1 pbc="T T T"
Si      -0.74943774       0.15133410      -2.23072594       0.00000000
Si       0.46358082       2.33958609       0.16663445       0.00000000
Si       1.73496645      -1.57781682       0.51724025       0.00000000
Si      -1.98969318      -0.30476961       1.71061923       0.00000000
Si       0.11287341      -2.48876991       2.40547627       0.00000000
Si       1.27667988       0.52758423      -3.40932366       0.00000000
Si      -2.08077057       2.15464572      -2.18600229       0.00000000
Si      -0.85224393       2.96722350       2.12832777       0.00000000
Si       2.67354738       2.45317626       0.99013675       0.00000000
Si       2.33088723       1.03596255       2.87640423       0.00000000
