10
Lattice="16.28999089631971 0.0 0.0 0.0 16.28999089631971 0.0 0.0 0.0 34.53561885213415" Properties=species:S:1:pos:R:3:initial_magmoms:R:1 pbc="T T T"
Si      -2.00041200       0.97648776       0.63376350       0.00000000
Si       1.05920838       1.85702157      -0.97473385       0.00000000
Si      -0.70921773      -1.58759082      -1.67684337       0.00000000
Si       1.17327096      -0.41591628       2.13174680       0.00000000
Si       1.34688978      -1.76191011      -2.87150017       0.00000000
Si      -1.48895487       3.08315033       1.53189730       0.00000000
Si      -0.91512333      -3.60224028      -0.52183349       0.00000000
Si       0.37344825       3.73572773       0.24088608       0.00000000
Si       0.30095775       1.96727229      -3.24013357       0.00000000
Si      -3.15688797       1.81350121      -1.23247332       0.00000000
