10
Lattice="16.28999089631971 0.0 0.0 0.0 16.28999089631971 0.0 0.0 0.0 34.53561885213415" Properties=species:S:1:pos:R:3:initial_magmoms:R:1 pbc="T T T"
Si       1.97247465       1.28212074       0.30857593       0.00000000
Si      -1.60906104      -0.33669801       1.72129074       0.00000000
Si      -1.35801585       0.66645648      -1.86264511       0.00000000
Si       1.33133283      -2.00331162      -0.04472365       0.00000000
Si       2.54435139       0.18494037       2.35263674       0.00000000
Si      -2.94596505       1.57534074       1.33984462       0.00000000
Si       3.15146340       0.63635256      -1.69822093       0.00000000
Si       2.08077057      -2.15464572       2.18600229       0.00000000
Si      -0.02221956       2.02875660      -3.19620424       0.00000000
Si      -2.88341145       2.25616500      -0.96644530       0.00000000
