10
Lattice="16.28999089631971 0.0 0.0 0.0 16.28999089631971 0.0 0.0 0.0 34.53561885213415" Properties=species:S:1:pos:R:3:initial_magmoms:R:1 pbc="T T T"
Si       2.20996656       0.11359017       0.82350229       0.00000000
Si      -0.57187674       1.09718037      -2.04406082       0.00000000
Si      -0.46358082      -2.33958609      -0.16663445       0.00000000
Si      -1.31582475       0.62763741       1.96169332       0.00000000
Si      -1.21301856      -2.18825199      -2.39736039       0.00000000
Si      -2.54435139      -0.18494037      -2.35263674       0.00000000
Si       1.86730641      -1.30362354       2.70976978       0.00000000
Si      -0.01381392       3.36986084      -1.55538154       0.00000000
Si       3.54651219      -1.09063179      -0.79204033       0.00000000
Si       0.15525999      -0.20437434       3.81832923       0.00000000
