10
Lattice="16.28999089631971 0.0 0.0 0.0 16.28999089631971 0.0 0.0 0.0 34.53561885213415" Properties=species:S:1:pos:R:3:initial_magmoms:R:1 pbc="T T T"
Si       1.37679822       1.32156535      -1.35132081       0.00000000
Si      -1.35754344       1.35610015       1.35970261       0.00000000
Si       1.35648459      -1.35944495       1.35818304       0.00000000
Si      -1.34267067      -1.37133174      -1.37825515       0.00000000
Si      -0.04756680       2.56429687      -2.64001124       0.00000000
Si      -2.71280628       2.71030414       0.00355717       0.00000000
Si       0.00026064       2.71292683       2.71671144       0.00000000
Si      -2.71443528      -0.00181634       2.71629701       0.00000000
Si       2.71524978      -0.00130320       2.71643515       0.00000000
Si      -2.70844056      -2.72334658      -0.00096700       0.00000000
