10
Lattice="16.28999089631971 0.0 0.0 0.0 16.28999089631971 0.0 0.0 0.0 34.53561885213415" Properties=species:S:1:pos:R:3:initial_magmoms:R:1 pbc="T T T"
Si       2.19930801      -0.31677534       0.84187525       0.00000000
Si      -0.81418627       2.09652300       0.79045169       0.00000000
Si       0.23060287      -0.38169099      -2.38202657       0.00000000
Si      -1.99288180      -1.19389410       0.70577030       0.00000000
Si      -3.02557006      -1.12901103      -1.45022052       0.00000000
Si      -1.93404232       0.32803173      -2.95631970       0.00000000
Si      -0.75034576       2.08445211       3.22894402       0.00000000
Si       3.82882929       0.65746440      -0.57646887       0.00000000
Si      -2.90308555       2.77148286      -0.31838405       0.00000000
Si       3.19052193      -2.41454290       0.49448127       0.00000000
