10
Lattice="16.28999089631971 0.0 0.0 0.0 16.28999089631971 0.0 0.0 0.0 34.53561885213415" Properties=species:S:1:pos:R:3:initial_magmoms:R:1 pbc="T T T"
Si       0.23048721      -2.31928223      -0.20286234       0.00000000
Si       1.88566524      -0.80878221       1.24366287       0.00000000
Si      -0.83051307      -1.45174851      -2.17384574       0.00000000
Si       1.82410533       1.42781850      -2.02510075       0.00000000
Si      -1.95408324      -1.09988451       2.26432912       0.00000000
Si      -2.58378948       0.34889922      -2.42972029       0.00000000
Si      -3.26319651       1.52697573      -0.40607003       0.00000000
Si       1.85479569       3.14449128       0.83016767       0.00000000
Si       0.96308109      -0.47530962      -3.62071630       0.00000000
Si       0.14457375       3.10594914      -2.45541480       0.00000000
