10
Lattice="16.28999089631971 0.0 0.0 0.0 16.28999089631971 0.0 0.0 0.0 34.53561885213415" Properties=species:S:1:pos:R:3:initial_magmoms:R:1 pbc="T T T"
Si       2.12781609       0.49226914       0.80295359       0.00000000
Si       0.69525720      -2.18907205      -0.63162229       0.00000000
Si      -0.08804745       1.41117175      -1.96545770       0.00000000
Si      -1.95321987      -0.35576546       1.40629119       0.00000000
Si       3.38840145       0.18560989      -1.19199755       0.00000000
Si       2.22034329      -1.66836220      -2.30148946       0.00000000
Si      -1.33229394      -3.27421411      -1.08918496       0.00000000
Si      -2.51128269      -2.62844593       0.91761191       0.00000000
Si      -2.13211665       0.87742990      -2.98004568       0.00000000
Si      -3.70188621       0.85178944       0.52898237       0.00000000
