10
Lattice="16.28999089631971 0.0 0.0 0.0 16.28999089631971 0.0 0.0 0.0 34.53561885213415" Properties=species:S:1:pos:R:3:initial_magmoms:R:1 pbc="T T T"
Si       1.35765747      -1.35741312       1.35635265       0.00000000
Si      -1.35703845       1.35764118       1.35676708       0.00000000
Si      -1.35780408      -1.35682668      -1.35700883       0.00000000
Si       1.35804843       1.35664749      -1.35797583       0.00000000
Si      -2.71306692      -0.00262269      -2.71315427       0.00000000
Si       0.00151497       2.71332756       2.71367230       0.00000000
Si      -2.71407690      -0.00151497       2.71384498       0.00000000
Si      -0.00166158      -2.71438641       2.71412127       0.00000000
Si       2.71498914      -2.71423003      -0.00027629       0.00000000
Si      -2.71469592      -2.71474316      -0.00041443       0.00000000
