10
Lattice="16.28999089631971 0.0 0.0 0.0 16.28999089631971 0.0 0.0 0.0 34.53561885213415" Properties=species:S:1:pos:R:3:initial_magmoms:R:1 pbc="T T T"
Si       1.36552554       1.34578206       1.32851693       0.00000000
Si      -1.35420399       1.35583299      -1.35486762       0.00000000
Si      -1.34980569      -1.35363384       1.36263814       0.00000000
Si       1.35912357      -1.35464382      -1.35310630       0.00000000
Si       2.50246980      -0.10342521       2.73681118       0.00000000
Si       0.05719419       2.68042176       2.64508453       0.00000000
Si      -2.65118121       0.05815530       2.74655023       0.00000000
Si      -2.71275741       0.00014661      -2.71177284       0.00000000
Si       0.00162900       2.71477737      -2.71198006       0.00000000
Si       0.00193851      -2.71490769      -2.71218727       0.00000000
