10
Lattice="16.28999089631971 0.0 0.0 0.0 16.28999089631971 0.0 0.0 0.0 34.53561885213415" Properties=species:S:1:pos:R:3:initial_magmoms:R:1 pbc="T T T"
Si       0.81182844       1.70934228      -1.34571568       0.00000000
Si       1.67953158      -1.67813064       0.43031405       0.00000000
Si      -0.03248226       1.17921681       2.12912209       0.00000000
Si      -1.89654696      -0.91292418      -1.24424997       0.00000000
Si       2.12015979       0.37470258      -2.66228327       0.00000000
Si      -0.59517144      -2.32471332      -2.62816206       0.00000000
Si       3.25710405      -1.07450469      -1.25398902       0.00000000
Si       2.44481949       2.73385296      -0.08323089       0.00000000
Si       1.71022194       0.03854214       3.28558247       0.00000000
Si       0.81850734      -3.58125876      -1.16530150       0.00000000
