10
Lattice="16.28999089631971 0.0 0.0 0.0 16.28999089631971 0.0 0.0 0.0 34.53561885213415" Properties=species:S:1:pos:R:3:initial_magmoms:R:1 pbc="T T T"
Si      -1.19356830      -2.02838193      -0.18241724       0.00000000
Si       2.36749086      -0.13478346       0.32232111       0.00000000
Si      -0.97914303       0.85462227       2.03180066       0.00000000
Si      -0.43023519       1.55644434      -1.87096820       0.00000000
Si       2.32637490       2.00616237       1.31052386       0.00000000
Si      -2.64158640       2.04056685      -1.18968366       0.00000000
Si      -2.49614928       2.42502714       1.13238904       0.00000000
Si      -0.77356323      -3.20877162       1.79865057       0.00000000
Si       3.25558908      -0.25006779      -1.86347396       0.00000000
Si       0.66670083       2.27326950       2.96433197       0.00000000
