10
Lattice="16.28999089631971 0.0 0.0 0.0 16.28999089631971 0.0 0.0 0.0 34.53561885213415" Properties=species:S:1:pos:R:3:initial_magmoms:R:1 pbc="T T T"
Si      -1.32209640       1.17483480       1.53693950       0.00000000
Si      -1.36213722      -1.34780202      -1.36129125       0.00000000
Si       1.40683698      -1.38298842       1.27885468       0.00000000
Si       1.35604476       1.36604682      -1.36284535       0.00000000
Si       2.69347005       2.71937115       0.00949730       0.00000000
Si      -2.70686043       2.71746522       0.02804294       0.00000000
Si       2.70633915       0.00721647      -2.72102839       0.00000000
Si      -0.00456120      -2.70757719      -2.72109747       0.00000000
Si       2.71516833      -2.71762812      -0.03771292       0.00000000
Si      -2.74188393      -2.69252523       0.01457404       0.00000000
