10
Lattice="16.28999089631971 0.0 0.0 0.0 16.28999089631971 0.0 0.0 0.0 34.53561885213415" Properties=species:S:1:pos:R:3:initial_magmoms:R:1 pbc="T T T"
Si      -1.33742529      -1.35332433      -1.37234265       0.00000000
Si       1.36370106      -1.28487375       1.45035866       0.00000000
Si       1.37562534       1.36233270      -1.37410397       0.00000000
Si      -1.44708957       1.20229974       1.51114138       0.00000000
Si       2.03872608       0.51969987       2.85844570       0.00000000
Si       0.26969724       2.17222263       2.82936669       0.00000000
Si      -2.69347005      -2.71937115      -0.00949730       0.00000000
Si      -2.70040959       2.71570590       0.02013428       0.00000000
Si       2.73355974      -2.69254152       0.00891019       0.00000000
Si      -2.69882946       0.00482184      -2.73028395       0.00000000
