10
Lattice="16.28999089631971 0.0 0.0 0.0 16.28999089631971 0.0 0.0 0.0 34.53561885213415" Properties=species:S:1:pos:R:3:initial_magmoms:R:1 pbc="T T T"
Si      -1.83356982       0.46320615       1.35987529       0.00000000
Si       0.49350555       1.86175152      -1.34257293       0.00000000
Si       2.16740079      -0.07108956       0.93767711       0.00000000
Si      -0.71078157      -2.22879780      -0.65562455       0.00000000
Si       2.45206854      -2.38055544       1.17631837       0.00000000
Si       0.99026910       0.90412758      -3.47580477       0.00000000
Si      -2.92581432      -2.44983681       0.10274352       0.00000000
Si      -1.53974709       2.73994542      -2.29185402       0.00000000
Si      -2.81127933      -1.46419407       2.25545346       0.00000000
Si       0.80622468      -3.79920267       0.24378707       0.00000000
