10
Lattice="16.28999089631971 0.0 0.0 0.0 16.28999089631971 0.0 0.0 0.0 34.53561885213415" Properties=species:S:1:pos:R:3:initial_magmoms:R:1 pbc="T T T"
Si      -1.35035955       1.35272160      -1.36094589       0.00000000
Si      -1.35609363      -1.35612621       1.35628358       0.00000000
Si       1.35689184      -1.35260757      -1.35970261       0.00000000
Si       1.35853713       1.35834165       1.35573101       0.00000000
Si       0.00105885      -2.71337643       2.71387952       0.00000000
Si      -2.71425609       0.00185706       2.71349963       0.00000000
Si      -2.71454931      -2.71378368      -0.00172678       0.00000000
Si       2.71603170       0.00125433       2.71339602       0.00000000
Si       2.71557558      -2.71422351      -0.00100153       0.00000000
Si       0.00037467       2.71692094       2.71332695       0.00000000
