10
Lattice="16.28999089631971 0.0 0.0 0.0 16.28999089631971 0.0 0.0 0.0 34.53561885213415" Properties=species:S:1:pos:R:3:initial_magmoms:R:1 pbc="T T T"
Si      -1.52508609      -0.52070985       1.66986718       0.00000000
Si      -1.31729085       0.50078785      -1.84976332       0.00000000
Si       1.64261844      -1.59011577      -0.51264701       0.00000000
Si       1.16805816       1.85397209       1.10949191       0.00000000
Si      -0.82746684       2.73560318      -1.48845147       0.00000000
Si       0.19088622      -1.44418995       3.06824970       0.00000000
Si       1.72050093      -2.61449613       1.65505139       0.00000000
Si      -2.22034329       1.66836220       2.30148946       0.00000000
Si       1.43363403       3.21780347      -0.91464184       0.00000000
Si      -0.09252720       2.16063134       3.10444305       0.00000000
