10
Lattice="16.28999089631971 0.0 0.0 0.0 16.28999089631971 0.0 0.0 0.0 34.53561885213415" Properties=species:S:1:pos:R:3:initial_magmoms:R:1 pbc="T T T"
Si      -1.34652163      -1.34273583       1.38772828       0.00000000
Si       1.36757808       1.37174832       1.38669221       0.00000000
Si      -1.52155116       1.20172959      -1.45324584       0.00000000
Si       1.35436689      -1.38981393      -1.52127414       0.00000000
Si      -0.08360028       2.52841977      -2.86186269       0.00000000
Si      -2.71395086      -2.70221778       0.01247082       0.00000000
Si       2.72192868      -2.69508276       0.01140021       0.00000000
Si      -2.70655811       2.72521926       0.01174557       0.00000000
Si       2.71410948       2.72171691      -0.00094282       0.00000000
Si       0.00535941      -2.70298341       2.74867417       0.00000000
