10
Lattice="16.28999089631971 0.0 0.0 0.0 16.28999089631971 0.0 0.0 0.0 34.53561885213415" Properties=species:S:1:pos:R:3:initial_magmoms:R:1 pbc="T T T"
Si      -0.58637484       1.39189905       1.80303660       0.00000000
Si      -2.26110087      -0.48220029      -0.57380963       0.00000000
Si      -0.26557587      -1.36383138       2.02413375       0.00000000
Si       1.79015697      -1.37358909      -1.02598474       0.00000000
Si       0.87995322       2.59178787      -2.05013909       0.00000000
Si       0.75746871      -1.30870602      -3.18197556       0.00000000
Si      -1.43363403      -3.21780347       0.91464184       0.00000000
Si       2.96885250       1.91682801      -0.94130335       0.00000000
Si      -2.68110594       0.69818940      -2.55487744       0.00000000
Si      -2.93293305       2.06384526       1.47080376       0.00000000
