10
Lattice="16.28999089631971 0.0 0.0 0.0 16.28999089631971 0.0 0.0 0.0 34.53561885213415" Properties=species:S:1:pos:R:3:initial_magmoms:R:1 pbc="T T T"
Si       1.23224860      -1.75912845      -0.96813754       0.00000000
Si       1.47399969       1.83472967      -0.14428990       0.00000000
Si      -2.10984822       0.48104696      -1.03192487       0.00000000
Si      -0.17804970      -0.59864284       2.34980482       0.00000000
Si      -3.37043358       0.78770621       0.96302627       0.00000000
Si      -2.56857462      -0.94442904       2.33191536       0.00000000
Si       1.24308910       2.76676202       2.02603321       0.00000000
Si       3.42457244      -1.35896460      -0.19733664       0.00000000
Si       0.40378023      -1.77937692      -3.20801543       0.00000000
Si       0.66984480      -3.64168230       0.33824204       0.00000000
