10
Lattice="16.28999089631971 0.0 0.0 0.0 16.28999089631971 0.0 0.0 0.0 34.53561885213415" Properties=species:S:1:pos:R:3:initial_magmoms:R:1 pbc="T T T"
Si      -1.34731332      -1.36699164      -1.37614157       0.00000000
Si       1.36580247       1.35583299      -1.38014771       0.00000000
Si       1.45218347      -1.26366417       1.43029345       0.00000000
Si      -1.56341646       1.24752078       1.35355527       0.00000000
Si      -2.70036072       2.69672805      -0.05473899       0.00000000
Si       2.71096292       2.69131977       0.00935916       0.00000000
Si      -2.71010214      -2.71881403      -0.00248657       0.00000000
Si      -2.70676269      -0.00369783      -2.73636222       0.00000000
Si       2.73722729      -2.70815874       0.00079432       0.00000000
Si       0.00825903       2.70845685      -2.73801993       0.00000000
