10
Lattice="16.28999089631971 0.0 0.0 0.0 16.28999089631971 0.0 0.0 0.0 34.53561885213415" Properties=species:S:1:pos:R:3:initial_magmoms:R:1 pbc="T T T"
Si      -0.70208271       1.15336458       1.86651310       0.00000000
Si       2.31643704       0.57549312       0.10502288       0.00000000
Si      -0.71197074       1.81231137      -1.62794091       0.00000000
Si      -0.79754211      -2.17380276       1.20042425       0.00000000
Si      -1.44876744      -0.06846687      -2.88006501       0.00000000
Si      -3.02633991      -0.67209282      -1.19576194       0.00000000
Si       1.85562389       2.84905584      -0.46750893       0.00000000
Si       2.99970317      -1.39385385      -1.22138738       0.00000000
Si      -2.99564955       1.04457996       1.65950648       0.00000000
Si       0.30035502       3.36417822       1.52208918       0.00000000
