10
Lattice="16.28999089631971 0.0 0.0 0.0 16.28999089631971 0.0 0.0 0.0 34.53561885213415" Properties=species:S:1:pos:R:3:initial_magmoms:R:1 pbc="T T T"
Si      -1.13694426       1.44920727      -1.40829425       0.00000000
Si       0.73679670       1.88077824       1.25212410       0.00000000
Si      -1.57757247      -0.60362595       1.68430307       0.00000000
Si       1.56341646      -1.24752078      -1.35355527       0.00000000
Si       1.44876744       0.06846687       2.88006501       0.00000000
Si      -2.43859671      -2.50675407       0.08868752       0.00000000
Si      -3.25710405       1.07450469       1.25398902       0.00000000
Si      -2.44527561       2.78384697      -0.09172665       0.00000000
Si      -2.50246980       0.10342521      -2.73681118       0.00000000
Si       2.66875812       2.62863585       0.05031842       0.00000000
