10
Lattice="16.28999089631971 0.0 0.0 0.0 16.28999089631971 0.0 0.0 0.0 34.53561885213415" Properties=species:S:1:pos:R:3:initial_magmoms:R:1 pbc="T T T"
Si      -0.89858898       1.05683004      -1.89251844       0.00000000
Si      -0.88809822       0.11528433       2.18579507       0.00000000
Si       1.83778308       1.48465431       0.19153465       0.00000000
Si       0.08094501      -2.32816680      -0.45214057       0.00000000
Si       1.20080106      -0.55967553       3.29463081       0.00000000
Si      -0.99404838      -2.27033730      -2.55860729       0.00000000
Si       3.23924111       0.62695323      -1.51259188       0.00000000
Si       2.27968843       1.40585958       2.46598271       0.00000000
Si      -3.25558908       0.25006779       1.86347396       0.00000000
Si      -0.19650627      -0.09653454      -3.75903153       0.00000000
