10
Lattice="16.28999089631971 0.0 0.0 0.0 16.28999089631971 0.0 0.0 0.0 34.53561885213415" Properties=species:S:1:pos:R:3:initial_magmoms:R:1 pbc="T T T"
Si       0.81418627      -2.09652300      -0.79045169       0.00000000
Si       1.07888737       1.96553511      -0.82864810       0.00000000
Si       0.06384051      -0.01207089       2.43849234       0.00000000
Si      -2.08889928       0.67495986      -1.10883573       0.00000000
Si      -1.17869553      -3.29041710      -0.08468138       0.00000000
Si      -2.13001524       2.81590569      -0.12063298       0.00000000
Si      -1.20080106       0.55967553      -3.29463081       0.00000000
Si      -0.02485854       3.52520487       0.52432006       0.00000000
Si      -2.96885250      -1.91682801       0.94130335       0.00000000
Si       0.63698202       2.04432984      -3.10309616       0.00000000
