10
Lattice="16.28999089631971 0.0 0.0 0.0 16.28999089631971 0.0 0.0 0.0 34.53561885213415" Properties=species:S:1:pos:R:3:initial_magmoms:R:1 pbc="T T T"
Si       1.45661922      -1.24973622       1.43677579       0.00000000
Si      -1.26413658       1.45442007       1.44223588       0.00000000
Si       1.21694445       1.65413547      -1.33913115       0.00000000
Si      -0.91694781      -1.90941606      -1.29195547       0.00000000
Si      -2.64538197      -2.74792752       0.14652781       0.00000000
Si       2.64162617      -2.77322589      -0.02821562       0.00000000
Si       0.09769113      -2.60304426       2.81679917       0.00000000
Si      -2.61589707       0.11174940       2.81745535       0.00000000
Si      -2.66479965       2.80236870       0.08717140       0.00000000
Si       2.86626038       0.28000881      -2.72401024       0.00000000
