10
Lattice="16.28999089631971 0.0 0.0 0.0 16.28999089631971 0.0 0.0 0.0 34.53561885213415" Properties=species:S:1:pos:R:3:initial_magmoms:R:1 pbc="T T T"
Si       0.92672411      -1.20176217      -1.86008947       0.00000000
Si       1.64565068       0.31166028       1.76487472       0.00000000
Si       1.06214940       2.21094396       0.01046430       0.00000000
Si      -2.23651926       0.52777971      -0.90600793       0.00000000
Si       2.97412136      -0.05657517      -1.67041975       0.00000000
Si      -0.00366525       1.68578694       3.14975381       0.00000000
Si       2.43884825       2.23826229      -1.85946783       0.00000000
Si       3.83061698       0.28704609       0.50864088       0.00000000
Si      -2.05100874       0.45810738      -3.31973822       0.00000000
Si      -3.91743549      -0.89052543      -0.14353011       0.00000000
