10
Lattice="16.28999089631971 0.0 0.0 0.0 16.28999089631971 0.0 0.0 0.0 34.53561885213415" Properties=species:S:1:pos:R:3:initial_magmoms:R:1 pbc="T T T"
Si       0.90624528      -2.01748392      -0.82011780       0.00000000
Si      -1.72209735       1.03438242      -1.36336339       0.00000000
Si       1.43120682       0.70501491       1.85601427       0.00000000
Si      -1.92805182      -1.55230668       0.93819515       0.00000000
Si      -0.77467095      -3.43578906      -0.05763998       0.00000000
Si      -3.05864298       2.23860438       0.25217923       0.00000000
Si       3.31437969       1.75615974       0.87171404       0.00000000
Si      -2.49756651      -0.49098060      -3.04956592       0.00000000
Si      -0.91797408       2.73808836      -2.76623554       0.00000000
Si       1.09175580      -2.08715625      -3.23384809       0.00000000
