10
Lattice="16.28999089631971 0.0 0.0 0.0 16.28999089631971 0.0 0.0 0.0 34.53561885213415" Properties=species:S:1:pos:R:3:initial_magmoms:R:1 pbc="T T T"
Si       1.07556354      -1.35588186      -1.63673856       0.00000000
Si      -1.09828809      -1.77214023       1.16919367       0.00000000
Si       1.94551470       1.14885225       0.95358423       0.00000000
Si      -1.75301577       1.79313804      -0.45969494       0.00000000
Si       0.32640273       2.33779924       2.51079615       0.00000000
Si      -2.42602083      -0.38323854       2.51935754       0.00000000
Si      -1.04254371       3.63964931       1.00911408       0.00000000
Si      -3.66959943       1.06596873       0.89793695       0.00000000
Si       3.02785434      -0.38059956       2.51823513       0.00000000
Si       2.95873641      -0.30473703      -2.62103878       0.00000000
