10
Lattice="16.28999089631971 0.0 0.0 0.0 16.28999089631971 0.0 0.0 0.0 34.53561885213415" Properties=species:S:1:pos:R:3:initial_magmoms:R:1 pbc="T T T"
Si      -1.35480672      -1.36964691       1.34236572       0.00000000
Si       1.35746755      -1.35633798      -1.36236185       0.00000000
Si      -1.35751086       1.35828531      -1.36236185       0.00000000
Si       1.37105015       1.37179297       1.37645239       0.00000000
Si      -2.71349046       2.71296008      -0.00048350       0.00000000
Si      -2.71261080      -2.71397916      -0.00597467       0.00000000
Si       2.71574567       2.71136366      -0.00314274       0.00000000
Si       2.71561535      -2.71301805      -0.00075978       0.00000000
Si      -0.00060602      -2.71378368      -2.71885265       0.00000000
Si      -2.71448415       0.00021263      -2.71961243       0.00000000
