10
Lattice="16.28999089631971 0.0 0.0 0.0 16.28999089631971 0.0 0.0 0.0 34.53561885213415" Properties=species:S:1:pos:R:3:initial_magmoms:R:1 pbc="T T T"
Si       1.33998608      -1.37458278       1.38861239       0.00000000
Si      -1.37751944       1.36241415       1.38807364       0.00000000
Si      -1.62191778      -1.17735975      -1.38727038       0.00000000
Si       1.25482196       1.61210727      -1.44408150       0.00000000
Si       0.02739815      -2.55148641      -2.77214947       0.00000000
Si      -2.45985909       2.89186596      -0.17657726       0.00000000
Si      -0.52971496       3.11277465      -2.17347418       0.00000000
Si       2.59083002      -2.83250520      -0.12521586       0.00000000
Si       2.68765778      -0.00373041       2.76493010       0.00000000
Si      -0.02614219       2.70739800       2.77000684       0.00000000
