10
Lattice="16.28999089631971 0.0 0.0 0.0 16.28999089631971 0.0 0.0 0.0 34.53561885213415" Properties=species:S:1:pos:R:3:initial_magmoms:R:1 pbc="T T T"
Si       1.35574038       1.35775521       1.35769954       0.00000000
Si       1.35708593      -1.35707103      -1.35728512       0.00000000
Si      -1.35799185      -1.35744570       1.35700883       0.00000000
Si      -1.35804072       1.35741312      -1.35714697       0.00000000
Si      -0.00044841      -2.71006956       2.71488105       0.00000000
Si       0.00047264       2.71451673      -2.71398312       0.00000000
Si       2.71443389       0.00006516      -2.71425941       0.00000000
Si       2.71448276      -2.71482624       0.00027629       0.00000000
Si       0.00229216       2.71257822       2.71681505       0.00000000
Si      -0.00180048      -2.71502172      -2.71453569       0.00000000
