10
Lattice="16.28999089631971 0.0 0.0 0.0 16.28999089631971 0.0 0.0 0.0 34.53561885213415" Properties=species:S:1:pos:R:3:initial_magmoms:R:1 pbc="T T T"
Si      -1.35344822       1.35482301       1.35911550       0.00000000
Si      -1.35574038      -1.35775521      -1.35769954       0.00000000
Si       1.35898673       1.35725022      -1.35721604       0.00000000
Si       1.35954059      -1.35492075       1.36149846       0.00000000
Si      -2.71378109      -0.00034209      -2.71484652       0.00000000
Si      -2.71541009       2.71326240      -0.00006907       0.00000000
Si      -2.71373222      -2.71520091      -0.00069071       0.00000000
Si       2.71563422       2.71399545      -0.00031082       0.00000000
Si       0.00134555      -2.71482624      -2.71498466       0.00000000
Si       0.00180656       2.71507059      -2.71501919       0.00000000
