10
Lattice="16.28999089631971 0.0 0.0 0.0 16.28999089631971 0.0 0.0 0.0 34.53561885213415" Properties=species:S:1:pos:R:3:initial_magmoms:R:1 pbc="T T T"
Si       1.37669885       0.02731833      -1.86993213       0.00000000
Si      -0.89053425       2.09047941       0.77535961       0.00000000
Si      -1.06214940      -2.21094396      -0.01046430       0.00000000
Si       0.58350128      -1.89928368       1.75441042       0.00000000
Si      -1.06581465      -0.52515702       3.13928951       0.00000000
Si       2.76846758      -1.92389787       0.49817658       0.00000000
Si       1.91197196      -2.26751913      -1.68088404       0.00000000
Si      -2.77370712       1.03933458       1.75965984       0.00000000
Si       2.66305499       1.93769550      -1.29902349       0.00000000
Si      -0.95843097       3.26021544      -1.28710870       0.00000000
