10
Lattice="16.28999089631971 0.0 0.0 0.0 16.28999089631971 0.0 0.0 0.0 34.53561885213415" Properties=species:S:1:pos:R:3:initial_magmoms:R:1 pbc="T T T"
Si      -1.64565068      -0.31166028      -1.76487472       0.00000000
Si       1.21331667      -1.72654452       1.28717777       0.00000000
Si       2.18496630      -0.02461419      -1.25623384       0.00000000
Si      -1.64931593       1.37412666       1.38487909       0.00000000
Si      -0.58350128       1.89928368      -1.75441042       0.00000000
Si       2.56343187      -0.28101879       2.64693360       0.00000000
Si       1.32847068      -0.36823545      -3.43529446       0.00000000
Si      -0.02739815       2.55148641       2.77214947       0.00000000
Si      -2.86626038      -0.28000881       2.72401024       0.00000000
Si      -0.71892657      -1.51342245      -3.62496419       0.00000000
