10
Lattice="16.28999089631971 0.0 0.0 0.0 16.28999089631971 0.0 0.0 0.0 34.53561885213415" Properties=species:S:1:pos:R:3:initial_magmoms:R:1 pbc="T T T"
Si      -1.35677452       1.35666378      -1.35828665       0.00000000
Si       1.35807357       1.35744570       1.35649080       0.00000000
Si       1.35822669      -1.35752715      -1.35783769       0.00000000
Si      -1.35898996      -1.35933534       1.35711244       0.00000000
Si      -2.71200478      -0.00019548       2.71287798       0.00000000
Si       2.71337061       0.00019548      -2.71443209       0.00000000
Si      -2.71387813       2.71399631      -0.00075978       0.00000000
Si      -2.71451344      -2.71546155      -0.00017268       0.00000000
Si       0.00115239      -2.71583622      -2.71450116       0.00000000
Si       0.00196086       2.71564257      -2.71505373       0.00000000
