10
Lattice="16.28999089631971 0.0 0.0 0.0 16.28999089631971 0.0 0.0 0.0 34.53561885213415" Properties=species:S:1:pos:R:3:initial_magmoms:R:1 pbc="T T T"
Si      -0.33825045       1.20964653      -2.06146678       0.00000000
Si       2.21250780      -1.05068871       0.22164973       0.00000000
Si      -0.36314320       2.55714623       0.36852979       0.00000000
Si      -1.33433738      -1.15821900       1.92232269       0.00000000
Si       0.34829649       2.39371354       2.58008846       0.00000000
Si      -1.34951966      -0.58855770      -3.30868681       0.00000000
Si      -1.07056202       0.67419423       3.46333740       0.00000000
Si       1.36456443      -3.33264078       0.87323361       0.00000000
Si      -3.21773831      -1.40755374      -1.93126742       0.00000000
Si      -3.53946581      -1.80745695       0.68974577       0.00000000
