10
Lattice="16.28999089631971 0.0 0.0 0.0 16.28999089631971 0.0 0.0 0.0 34.53561885213415" Properties=species:S:1:pos:R:3:initial_magmoms:R:1 pbc="T T T"
Si       1.35596331       1.35615716      -1.35756140       0.00000000
Si      -1.35622837      -1.35631239      -1.35769954       0.00000000
Si      -1.35696140       1.35716714       1.35676708       0.00000000
Si       1.35769005      -1.35688020       1.35700883       0.00000000
Si      -0.00011566      -2.71450926       2.71384498       0.00000000
Si      -2.71509407       0.00011403       2.71384498       0.00000000
Si      -0.00106048       2.71435220       2.71508826       0.00000000
Si       2.71555929       0.00116148       2.71394859       0.00000000
Si       2.71477737      -2.71522602      -0.00006907       0.00000000
Si       2.71477737       2.71528073      -0.00034536       0.00000000
