10
Lattice="10.86 0.0 0.0 0.0 10.86 0.0 0.0 0.0 10.86" Properties=species:S:1:pos:R:3:initial_magmoms:R:1 pbc="T T T"
Si      -1.28992908       1.35209172      -1.27305264       0.00000000
Si      -1.28992908      -1.36290828       1.44194736       0.00000000
Si       1.42507092       1.35209172       1.44194736       0.00000000
Si       1.00262778      -1.68802410      -1.82993172       0.00000000
Si      -2.64742908      -0.00540828      -2.63055264       0.00000000
Si       0.03163518      -2.70456354       2.58447366       0.00000000
Si       0.06757092       2.70959172      -2.63055264       0.00000000
Si      -2.64742908       2.70959172       0.08444736       0.00000000
Si      -2.64742908      -2.72040828       0.08444736       0.00000000
Si      -2.64742908      -0.00540828       2.79944736       0.00000000
