10
Lattice="16.28999089631971 0.0 0.0 0.0 16.28999089631971 0.0 0.0 0.0 34.185847837958455" Properties=species:S:1:pos:R:3:initial_magmoms:R:1 pbc="T T T"
Si      -1.34931699      -1.35374298       1.39344670       0.00000000
Si       1.36519974       1.36397799       1.39348089       0.00000000
Si       1.32442587      -1.46311730      -1.44091036       0.00000000
Si      -1.50312717       1.30535028      -1.45476589       0.00000000
Si      -2.68112223      -2.71097849       0.04072904       0.00000000
Si       2.70363501       2.70459612       0.03479438       0.00000000
Si       2.70664866      -2.70484766       0.04190504       0.00000000
Si      -2.70739800       2.71423980       0.02425487       0.00000000
Si      -2.70824508       0.00439830       2.75110422       0.00000000
Si       0.00519651      -2.71123334       2.75206143       0.00000000
