10
Lattice="16.28999089631971 0.0 0.0 0.0 16.28999089631971 0.0 0.0 0.0 34.185847837958455" Properties=species:S:1:pos:R:3:initial_magmoms:R:1 pbc="T T T"
Si       0.52634619       1.87700548      -1.48653824       0.00000000
Si       0.69678846       1.29589231       1.99344627       0.00000000
Si       1.51102782      -1.99638904      -0.00290580       0.00000000
Si      -2.01500784      -0.80461264      -1.26309941       0.00000000
Si       1.94367393       0.56660692      -2.87017702       0.00000000
Si       3.23481933      -0.99139378      -1.37509231       0.00000000
Si      -0.79302978      -2.14619188      -2.87137352       0.00000000
Si       0.53131464      -3.55148131      -1.46062535       0.00000000
Si      -1.12054023      -1.30899991       3.51146969       0.00000000
Si       3.43846062       0.84716797       1.91403250       0.00000000
