10
Lattice="16.28999089631971 0.0 0.0 0.0 16.28999089631971 0.0 0.0 0.0 34.185847837958455" Properties=species:S:1:pos:R:3:initial_magmoms:R:1 pbc="T T T"
Si      -0.37965474      -2.23686854      -0.52215493       0.00000000
Si      -2.17645803       0.86253921       0.34131170       0.00000000
Si       0.93905334       0.63952911       2.09333738       0.00000000
Si       1.43767395       0.36802368      -2.04017835       0.00000000
Si      -1.47849669       3.09610998       0.55175989       0.00000000
Si       1.75570362      -3.27152789      -0.04239048       0.00000000
Si      -3.42183342       0.13238883      -1.48240175       0.00000000
Si       0.00832419       2.87790543       2.42288913       0.00000000
Si      -1.69184682       2.52565047      -2.26966808       0.00000000
Si       1.83141954       2.76910452      -1.91659644       0.00000000
