10
Lattice="16.28999089631971 0.0 0.0 0.0 16.28999089631971 0.0 0.0 0.0 34.185847837958455" Properties=species:S:1:pos:R:3:initial_magmoms:R:1 pbc="T T T"
Si      -2.11009257      -1.05424712       0.10703595       0.00000000
Si       1.56957408      -1.52576117      -1.00851726       0.00000000
Si      -0.33837588       2.18903391      -0.96616097       0.00000000
Si       1.12026330       0.33760048       2.13025811       0.00000000
Si      -2.09337903      -2.10775400       2.27383875       0.00000000
Si       1.79667297       3.24073260      -0.94270947       0.00000000
Si       3.11961645      -0.34571387      -2.39290813       0.00000000
Si       0.62040465      -2.76233507      -2.79671159       0.00000000
Si       3.36513933       1.11815537       1.81896161       0.00000000
Si      -2.77047288      -2.23962155      -1.87044552       0.00000000
