10
Lattice="16.28999089631971 0.0 0.0 0.0 16.28999089631971 0.0 0.0 0.0 34.185847837958455" Properties=species:S:1:pos:R:3:initial_magmoms:R:1 pbc="T T T"
Si       1.35685926       1.35679410      -1.35711055       0.00000000
Si      -1.35746199       1.35681039       1.35693962       0.00000000
Si       1.35767376      -1.35845568       1.35711055       0.00000000
Si      -1.35739683      -1.35865116      -1.35840961       0.00000000
Si       0.00325800       2.70808218      -2.71476807       0.00000000
Si      -2.71499566      -0.00114030       2.71329807       0.00000000
Si      -2.71461773       2.71430496      -0.00010256       0.00000000
Si      -2.71439618       0.00304623      -2.71469969       0.00000000
Si       2.71458189      -0.00177561       2.71452876       0.00000000
Si       2.71526607       2.71443528      -0.00030767       0.00000000
