10
Lattice="16.28999089631971 0.0 0.0 0.0 16.28999089631971 0.0 0.0 0.0 34.185847837958455" Properties=species:S:1:pos:R:3:initial_magmoms:R:1 pbc="T T T"
Si      -1.35343836       1.35614250       1.36022146       0.00000000
Si      -1.35690813      -1.35668007      -1.35741822       0.00000000
Si       1.35834165       1.35891180      -1.35748659       0.00000000
Si       1.35837423      -1.35806472       1.35871728       0.00000000
Si      -2.71906164      -0.02704140       2.70656346       0.00000000
Si       2.71437012      -2.71400848      -0.00112813       0.00000000
Si       0.00089595      -2.71445320      -2.71435784       0.00000000
Si      -2.71458189       0.00177561      -2.71452876       0.00000000
Si       0.01444923       2.72039742       2.70974274       0.00000000
Si       2.71586880       0.00107514      -2.71469969       0.00000000
