10
Lattice="16.28999089631971 0.0 0.0 0.0 16.28999089631971 0.0 0.0 0.0 34.185847837958455" Properties=species:S:1:pos:R:3:initial_magmoms:R:1 pbc="T T T"
Si      -0.29809071      -0.10937106       2.38706235       0.00000000
Si       1.91182698       0.90409500      -1.18881352       0.00000000
Si      -0.86227857      -1.92933873      -1.21650408       0.00000000
Si      -1.82609271       1.64431260      -0.20716635       0.00000000
Si      -0.69183630      -2.51045190       2.26348044       0.00000000
Si      -2.18087262      -0.54529146      -2.63196990       0.00000000
Si       0.55263825       2.20214736      -2.62879061       0.00000000
Si      -0.87649974       3.48356763      -1.30918196       0.00000000
Si      -3.64187385       0.73300113      -1.37140024       0.00000000
Si       3.45792717       2.00862216       0.25311216       0.00000000
