10
Lattice="16.28999089631971 0.0 0.0 0.0 16.28999089631971 0.0 0.0 0.0 34.185847837958455" Properties=species:S:1:pos:R:3:initial_magmoms:R:1 pbc="T T T"
Si      -0.69322095       1.70655669       1.49477703       0.00000000
Si       2.17262988      -0.69300918       0.70850209       0.00000000
Si      -1.31768181      -2.01344400       0.18282602       0.00000000
Si      -0.63218232       1.10442942      -2.16758908       0.00000000
Si      -2.76962580       2.40661944       0.56519494       0.00000000
Si      -2.80450269      -1.79523945      -1.68830322       0.00000000
Si       2.83310793      -2.45790036      -0.69814377       0.00000000
Si       0.85384035       3.49844040       1.29916550       0.00000000
Si      -1.48484979      -0.76202991      -3.50005162       0.00000000
Si       3.66699303       1.18560249       0.63107110       0.00000000
