10
Lattice="16.28999089631971 0.0 0.0 0.0 16.28999089631971 0.0 0.0 0.0 34.185847837958455" Properties=species:S:1:pos:R:3:initial_magmoms:R:1 pbc="T T T"
Si      -0.94677480       1.52902827       1.46674462       0.00000000
Si       2.17662093      -0.48014775       0.68713593       0.00000000
Si       0.47635218       1.38245085      -1.84894261       0.00000000
Si      -1.54706130      -1.79188371       0.19561153       0.00000000
Si       2.01525219      -0.86716557       2.98162294       0.00000000
Si       2.81315268      -2.31283791      -0.66809440       0.00000000
Si      -1.28402667      -2.44696977       2.49348295       0.00000000
Si      -1.86013881       3.25669680       0.14922131       0.00000000
Si      -1.22000697       2.93013117      -2.11138751       0.00000000
Si       1.06403022       0.06771753      -3.67614302       0.00000000
