10
Lattice="16.28999089631971 0.0 0.0 0.0 16.28999089631971 0.0 0.0 0.0 34.185847837958455" Properties=species:S:1:pos:R:3:initial_magmoms:R:1 pbc="T T T"
Si       0.69322095      -1.70655669      -1.49477703       0.00000000
Si       1.54706130       1.79188371      -0.19561153       0.00000000
Si      -2.07640485       0.70006275      -0.92958209       0.00000000
Si       0.26303463      -0.65508606       2.29787142       0.00000000
Si       0.60028650       3.32091198       1.27113309       0.00000000
Si       0.06103863      -0.60212727      -3.66236611       0.00000000
Si      -1.56348162       1.10996802      -3.20263457       0.00000000
Si      -1.31471703      -2.37107466       2.59952751       0.00000000
Si       2.86585083      -2.39956587      -0.78627494       0.00000000
Si       2.49121341      -1.24864479       2.71548597       0.00000000
