10
Lattice="16.28999089631971 0.0 0.0 0.0 16.28999089631971 0.0 0.0 0.0 34.185847837958455" Properties=species:S:1:pos:R:3:initial_magmoms:R:1 pbc="T T T"
Si      -0.59577417       1.72128285      -1.40962004       0.00000000
Si      -1.41126786      -1.21445208       1.44763472       0.00000000
Si       1.50760692       0.76463631       1.66813356       0.00000000
Si       0.97860546      -1.76238252      -1.44835262       0.00000000
Si       2.16924156      -1.48058181       1.68273093       0.00000000
Si       0.16749378      -2.80961775       2.06735612       0.00000000
Si       3.08892609      -1.71667278      -0.46058619       0.00000000
Si      -2.99540520      -1.95159087      -0.06823499       0.00000000
Si      -1.98342153       0.63381132      -2.96323095       0.00000000
Si       1.32673905       2.95973010      -1.85851466       0.00000000
