10
Lattice="16.28999089631971 0.0 0.0 0.0 16.28999089631971 0.0 0.0 0.0 34.185847837958455" Properties=species:S:1:pos:R:3:initial_magmoms:R:1 pbc="T T T"
Si       0.93587679      -1.28301669       1.69855898       0.00000000
Si      -2.08528290      -0.99289179      -0.35112304       0.00000000
Si       0.04618215       2.16717273       0.92346282       0.00000000
Si       1.15149123      -0.11934054      -2.16181167       0.00000000
Si      -1.74316032       2.73033432      -0.61790954       0.00000000
Si      -3.35186298       1.00137888      -0.55661429       0.00000000
Si       3.19024989      -1.14021855       1.15804624       0.00000000
Si      -1.76738355      -2.09842893      -2.38231051       0.00000000
Si       1.81312587      -2.36455866      -2.14721430       0.00000000
Si      -0.27539874      -3.27715704       1.90699022       0.00000000
