10
Lattice="16.28999089631971 0.0 0.0 0.0 16.28999089631971 0.0 0.0 0.0 34.185847837958455" Properties=species:S:1:pos:R:3:initial_magmoms:R:1 pbc="T T T"
Si       1.43985681       0.09391185      -1.77698136       0.00000000
Si       1.51511661      -0.47581461       1.74248782       0.00000000
Si      -1.86670368      -1.45168335      -0.04676627       0.00000000
Si       0.17327673       2.08818252      -1.98247261       0.00000000
Si      -1.71251883       2.61578304      -0.30712583       0.00000000
Si      -0.06939540      -1.33791399       3.20243770       0.00000000
Si      -0.96283674      -2.97328338       1.71978841       0.00000000
Si       3.24974097      -2.19035340       0.48113189       0.00000000
Si      -2.56948849      -1.55259990      -2.56961487       0.00000000
Si       3.52513971       1.08680364      -1.42585832       0.00000000
