10
Lattice="16.28999089631971 0.0 0.0 0.0 16.28999089631971 0.0 0.0 0.0 34.185847837958455" Properties=species:S:1:pos:R:3:initial_magmoms:R:1 pbc="T T T"
Si       0.97971318       1.55509227       1.45771955       0.00000000
Si       1.40336721      -1.30893408      -1.41252584       0.00000000
Si      -1.32434442       1.40528943      -1.41074817       0.00000000
Si      -1.38811977      -1.33558452       1.48007711       0.00000000
Si       1.20438486      -0.13634730       3.50343602       0.00000000
Si       2.70350469       2.56008753       0.08553304       0.00000000
Si      -2.54632248       2.74686867       0.19752594       0.00000000
Si      -2.65259844      -2.68964190      -0.00950367       0.00000000
Si       2.73064383      -2.71801908      -0.00092302       0.00000000
Si       0.03984534      -2.66440869      -2.78830187       0.00000000
