10
Lattice="16.28999089631971 0.0 0.0 0.0 16.28999089631971 0.0 0.0 0.0 34.185847837958455" Properties=species:S:1:pos:R:3:initial_magmoms:R:1 pbc="T T T"
Si      -0.94395663      -1.89123642      -1.03350713       0.00000000
Si       2.34220878       0.15742656      -0.26285513       0.00000000
Si      -1.02788271       1.98449082      -0.82733217       0.00000000
Si      -0.11130957      -0.77027265       2.31499854       0.00000000
Si       1.35705474      -2.53143342       1.83762709       0.00000000
Si       2.58183468       2.51497793      -0.34462772       0.00000000
Si      -0.03059262      -3.61890495       0.28401618       0.00000000
Si       3.27956796      -1.29298617       1.38873247       0.00000000
Si      -0.97840998       3.57072632       0.87994422       0.00000000
Si      -3.28349385       1.59514842      -1.13705612       0.00000000
