10
Lattice="16.28999089631971 0.0 0.0 0.0 16.28999089631971 0.0 0.0 0.0 34.185847837958455" Properties=species:S:1:pos:R:3:initial_magmoms:R:1 pbc="T T T"
Si       2.11009257       1.05424712      -0.10703595       0.00000000
Si      -1.88825535       1.36533888       0.40951250       0.00000000
Si      -0.66038031      -1.18537443      -1.97748147       0.00000000
Si       0.01671354      -1.05350688       2.16680280       0.00000000
Si      -1.19540907       2.45577356       2.41789800       0.00000000
Si       1.77171669       3.24328103      -1.07319692       0.00000000
Si       3.67966665      -0.47151405      -1.11555321       0.00000000
Si      -3.73863645      -0.07815942       1.09555448       0.00000000
Si      -1.59198912      -2.78246232       2.22809806       0.00000000
Si       0.80798400      -2.94653520      -2.45485292       0.00000000
