10
Lattice="16.28999089631971 0.0 0.0 0.0 16.28999089631971 0.0 0.0 0.0 34.185847837958455" Properties=species:S:1:pos:R:3:initial_magmoms:R:1 pbc="T T T"
Si      -1.60870266      -1.72895544       0.06129526       0.00000000
Si      -0.01671354       1.05350688      -2.16680280       0.00000000
Si       1.78934247      -0.56316159       1.54137237       0.00000000
Si      -1.14093531       1.53730359       1.58318168       0.00000000
Si       1.74316032      -2.73033432       0.61790954       0.00000000
Si      -1.90496889       2.41884576      -1.75729030       0.00000000
Si      -1.21212261       3.50928044       0.25109519       0.00000000
Si       2.09337903       2.10775400      -2.27383875       0.00000000
Si      -0.34212258      -3.72322611       0.26678651       0.00000000
Si      -3.29849694      -1.39546656      -1.55826019       0.00000000
