10
Lattice="16.28999089631971 0.0 0.0 0.0 16.28999089631971 0.0 0.0 0.0 34.185847837958455" Properties=species:S:1:pos:R:3:initial_magmoms:R:1 pbc="T T T"
Si      -1.35692442       1.35656387      -1.35663194       0.00000000
Si       1.35654975       1.35700859       1.35659776       0.00000000
Si       1.35733167      -1.35701359      -1.35693962       0.00000000
Si      -1.35760860      -1.35854485       1.35765752       0.00000000
Si      -0.00084708       2.71327815      -2.71394760       0.00000000
Si       2.71407690      -0.00189298      -2.71480225       0.00000000
Si      -2.71472850       2.71433700       0.00030767       0.00000000
Si       0.00055386       2.71295235       2.71644317       0.00000000
Si      -2.71453302      -2.71491541       0.00000000       0.00000000
Si       2.71513575      -2.71506202       0.00010256       0.00000000
