10
Lattice="16.28999089631971 0.0 0.0 0.0 16.28999089631971 0.0 0.0 0.0 34.185847837958455" Properties=species:S:1:pos:R:3:initial_magmoms:R:1 pbc="T T T"
Si       1.22689764      -0.57317831      -1.94285119       0.00000000
Si       1.22262966       2.07510165       0.16443402       0.00000000
Si       1.23945723      -1.36735165       1.61316269       0.00000000
Si      -2.74167216       0.44872434       0.07941377       0.00000000
Si       2.25113139       0.80588259       1.89116216       0.00000000
Si      -0.63451179      -1.70610776       2.96186351       0.00000000
Si       2.96549676      -1.66561082      -0.73191941       0.00000000
Si      -0.30129984       3.37633056       1.44284870       0.00000000
Si      -2.34792657       2.84980518       0.20299568       0.00000000
Si      -0.20364129      -1.83856175      -3.28912482       0.00000000
