10
Lattice="16.28999089631971 0.0 0.0 0.0 16.28999089631971 0.0 0.0 0.0 34.185847837958455" Properties=species:S:1:pos:R:3:initial_magmoms:R:1 pbc="T T T"
Si      -1.52392950       1.30122891       1.27841468       0.00000000
Si       1.02850173      -1.26921906       1.72672814       0.00000000
Si       1.62766422       1.63931157      -0.59076597       0.00000000
Si      -1.22262966      -2.07510165      -0.16443402       0.00000000
Si       0.00426798      -2.64827996      -2.10728521       0.00000000
Si       2.80132614       0.14260266      -1.96924268       0.00000000
Si       0.18546165       2.89269675      -2.09538853       0.00000000
Si      -3.57055623       0.77470353       0.03856166       0.00000000
Si       0.01682757      -3.44245330       1.44872867       0.00000000
Si      -1.24286184       0.43904808       3.49707744       0.00000000
