10
Lattice="16.28999089631971 0.0 0.0 0.0 16.28999089631971 0.0 0.0 0.0 34.185847837958455" Properties=species:S:1:pos:R:3:initial_magmoms:R:1 pbc="T T T"
Si      -0.02239875       1.10170899       2.08096209       0.00000000
Si       2.30187474      -0.52274610      -0.22077233       0.00000000
Si      -1.02850173       1.26921906      -1.72672814       0.00000000
Si      -1.01167416      -2.17323424      -0.27799947       0.00000000
Si      -2.25113139      -0.80588259      -1.89116216       0.00000000
Si      -2.27136357       1.70826714       1.77034931       0.00000000
Si       2.34851301      -0.66883482      -2.58516944       0.00000000
Si       0.80394408      -0.70053516       3.39455403       0.00000000
Si      -2.55243123       2.57044797      -0.44831346       0.00000000
Si       0.71436537      -2.47149341      -2.62308157       0.00000000
