10
Lattice="16.28999089631971 0.0 0.0 0.0 16.28999089631971 0.0 0.0 0.0 34.185847837958455" Properties=species:S:1:pos:R:3:initial_magmoms:R:1 pbc="T T T"
Si       1.19112480      -0.13929579      -1.96828548       0.00000000
Si      -2.19779793      -0.40123247      -0.75708021       0.00000000
Si      -0.24167844       2.31630768       0.55610150       0.00000000
Si       0.99914715      -1.79257538       1.38008345       0.00000000
Si      -0.32379633       1.79387109       2.83028211       0.00000000
Si       0.99023652      -2.52054260      -2.25134445       0.00000000
Si      -3.41146809       1.07621514       0.64289941       0.00000000
Si       3.38335155       0.51201099      -1.38032275       0.00000000
Si       0.36478197       1.66294836      -3.28187741       0.00000000
Si      -2.43742383      -2.75878385      -0.67530762       0.00000000
