10
Lattice="16.28999089631971 0.0 0.0 0.0 16.28999089631971 0.0 0.0 0.0 34.185847837958455" Properties=species:S:1:pos:R:3:initial_magmoms:R:1 pbc="T T T"
Si      -1.80340074      -0.86885810       1.31828364       0.00000000
Si       1.57775166      -1.82555025      -0.08272980       0.00000000
Si       0.87845454       1.86136056       1.42857067       0.00000000
Si      -0.22516038       0.46455822      -2.46162172       0.00000000
Si       1.66677651       2.09258082      -2.07679142       0.00000000
Si      -0.42117795      -2.11058846       2.80109904       0.00000000
Si       2.30843961       0.60461964       2.79459347       0.00000000
Si       3.41782119      -0.86451356       1.31867678       0.00000000
Si      -2.76988644      -2.60531576      -0.00673462       0.00000000
Si       0.73544463      -3.54749678       1.39349597       0.00000000
