10
Lattice="16.28999089631971 0.0 0.0 0.0 16.28999089631971 0.0 0.0 0.0 34.185847837958455" Properties=species:S:1:pos:R:3:initial_magmoms:R:1 pbc="T T T"
Si      -1.33843527      -1.34061813       1.35868651       0.00000000
Si      -1.33216362       1.40618538      -1.35380135       0.00000000
Si       1.30264614      -1.43749476      -1.36541771       0.00000000
Si       1.37785707       1.37422440       1.35998558       0.00000000
Si       0.60691653       2.06457831      -2.48123552       0.00000000
Si       2.24502264       0.19204281      -2.75525579       0.00000000
Si      -2.70363501      -2.70459612      -0.03479438       0.00000000
Si      -2.69762400       0.01524744       2.71760891       0.00000000
Si       0.01707192      -2.70106119       2.71757473       0.00000000
Si      -2.68626987       2.73593808       0.01828260       0.00000000
