10
Lattice="16.28999089631971 0.0 0.0 0.0 16.28999089631971 0.0 0.0 0.0 34.185847837958455" Properties=species:S:1:pos:R:3:initial_magmoms:R:1 pbc="T T T"
Si      -2.20403700       0.59140845      -0.34049123       0.00000000
Si       0.31659615      -2.05871391      -1.00393635       0.00000000
Si       0.06553467       0.18601551       2.38552398       0.00000000
Si       1.52924004       1.31149161      -1.29519994       0.00000000
Si       3.16558683       1.05524991       0.34749934       0.00000000
Si      -2.01891744       2.45886147       1.06793230       0.00000000
Si       2.06465976       1.45960029       2.39270301       0.00000000
Si      -3.27489273      -1.48905261       0.01319574       0.00000000
Si       0.39871404      -1.53627732      -3.27811697       0.00000000
Si      -2.27890584       1.33273377      -2.51830189       0.00000000
