10
Lattice="16.28999089631971 0.0 0.0 0.0 16.28999089631971 0.0 0.0 0.0 34.185847837958455" Properties=species:S:1:pos:R:3:initial_magmoms:R:1 pbc="T T T"
Si      -0.74119500      -1.90801512      -1.12245876       0.00000000
Si       1.93251528       0.83800647      -1.10560512       0.00000000
Si      -1.81236024       1.71810630       0.30220306       0.00000000
Si      -2.09108214      -0.49466214      -2.56110259       0.00000000
Si       0.63723222       2.22537690      -2.56906790       0.00000000
Si      -0.80311329       3.39898995      -1.14519236       0.00000000
Si      -3.47177367       0.82181421      -1.14505561       0.00000000
Si      -3.13795899      -1.76705775       1.35403382       0.00000000
Si      -1.88718021      -3.38370993       0.29957075       0.00000000
Si       1.43708751      -0.38286387       3.68294600       0.00000000
