10
Lattice="16.28999089631971 0.0 0.0 0.0 16.28999089631971 0.0 0.0 0.0 34.185847837958455" Properties=species:S:1:pos:R:3:initial_magmoms:R:1 pbc="T T T"
Si      -0.27536616      -0.88130529       2.09275622       0.00000000
Si       1.25077878      -1.61665218      -1.05446307       0.00000000
Si      -1.73112201       1.10824128      -1.11777529       0.00000000
Si      -2.56057623       1.09364544       1.25756130       0.00000000
Si       2.39676399      -0.14095737      -2.47649257       0.00000000
Si      -0.33381468       2.58887196      -2.49908943       0.00000000
Si      -1.09278207       1.95375744       2.85916917       0.00000000
Si      -0.29532141      -2.72117934      -2.49638875       0.00000000
Si       0.65563992       0.50463162       3.64923874       0.00000000
Si       3.13795899       1.76705775      -1.35403382       0.00000000
