10
Lattice="16.28999089631971 0.0 0.0 0.0 16.28999089631971 0.0 0.0 0.0 34.185847837958455" Properties=species:S:1:pos:R:3:initial_magmoms:R:1 pbc="T T T"
Si      -2.11032063      -0.04570974      -0.98776644       0.00000000
Si       0.62672517      -2.24031483       0.16481006       0.00000000
Si      -0.91968453       0.23609097       2.14331711       0.00000000
Si       1.29090105       1.88408511      -0.81926430       0.00000000
Si      -3.08892609       1.71667278       0.46058619       0.00000000
Si      -1.58131917       2.48130909       2.12871975       0.00000000
Si       0.84929544       0.17192466       3.57960213       0.00000000
Si       2.61866637       1.21857345       2.45881848       0.00000000
Si       3.00284973       0.92473443      -2.13952248       0.00000000
Si       2.26307196      -2.49655653       1.80750934       0.00000000
