10
Lattice="16.28999089631971 0.0 0.0 0.0 16.28999089631971 0.0 0.0 0.0 34.185847837958455" Properties=species:S:1:pos:R:3:initial_magmoms:R:1 pbc="T T T"
Si       1.35609363       1.33366230       1.37933136       0.00000000
Si      -1.35861858       1.35461124      -1.35967449       0.00000000
Si       1.35560493      -1.36041048      -1.35912751       0.00000000
Si      -1.35096228      -1.36433637       1.37581022       0.00000000
Si      -0.05082480       2.50468524       2.87386909       0.00000000
Si      -2.71572219       2.71300176      -0.00068372       0.00000000
Si      -0.00100998       2.71315609      -2.71733201       0.00000000
Si       2.71479366       2.71625976       0.00082046       0.00000000
Si       2.71412577      -0.00190593      -2.71722945       0.00000000
Si      -2.71554300      -0.00175932      -2.71733201       0.00000000
