10
Lattice="16.28999089631971 0.0 0.0 0.0 16.28999089631971 0.0 0.0 0.0 34.185847837958455" Properties=species:S:1:pos:R:3:initial_magmoms:R:1 pbc="T T T"
Si       1.33581258       1.36791270       1.36408446       0.00000000
Si      -1.35925389       1.35390492      -1.36155471       0.00000000
Si       1.35682668      -1.36257705      -1.36083681       0.00000000
Si      -1.35870003      -1.38259746       1.37851090       0.00000000
Si       2.55598245      -0.12890277       2.70218767       0.00000000
Si      -2.71524978       2.70984869      -0.00170929       0.00000000
Si       2.71591767       2.71305782      -0.00550392       0.00000000
Si      -0.00019548       2.71165688      -2.71777642       0.00000000
Si      -2.71479366      -2.71625976      -0.00082046       0.00000000
Si       2.71438641      -0.00333508      -2.71784479       0.00000000
