10
Lattice="16.28999089631971 0.0 0.0 0.0 16.28999089631971 0.0 0.0 0.0 34.185847837958455" Properties=species:S:1:pos:R:3:initial_magmoms:R:1 pbc="T T T"
Si      -1.37464794      -1.92026520       0.38753099       0.00000000
Si      -0.77072877       1.69652174       1.54123563       0.00000000
Si      -0.77963940       0.96855453      -2.09019228       0.00000000
Si       2.34878994      -0.73456497       0.04909090       0.00000000
Si      -3.26994057      -0.72009945       1.13743216       0.00000000
Si       2.31375015      -2.70759348      -1.16956688       0.00000000
Si      -2.32077114       0.51647445       2.92562649       0.00000000
Si       0.58720563       0.07569963      -3.77613668       0.00000000
Si      -0.57875112       3.34980134      -1.80713330       0.00000000
Si      -0.21685248      -3.51241722       1.71609633       0.00000000
