10
Lattice="16.28999089631971 0.0 0.0 0.0 16.28999089631971 0.0 0.0 0.0 34.185847837958455" Properties=species:S:1:pos:R:3:initial_magmoms:R:1 pbc="T T T"
Si      -1.35735559      -1.35671265      -1.35656357       0.00000000
Si      -1.35362576       1.35659862       1.36052913       0.00000000
Si       1.35855994      -1.35685926       1.35601660       0.00000000
Si       1.35753367       1.35795069      -1.35635846       0.00000000
Si       0.00895298       2.71722087       2.68601775       0.00000000
Si       2.71051591      -0.02767671       2.70779415       0.00000000
Si      -0.00001792      -2.71413229      -2.71391342       0.00000000
Si       2.71499566       0.00114030      -2.71329807       0.00000000
Si      -2.71468030       0.00071676      -2.71363993       0.00000000
Si       2.71338295      -2.71527096       0.00129906       0.00000000
