10
Lattice="16.28999089631971 0.0 0.0 0.0 16.28999089631971 0.0 0.0 0.0 34.185847837958455" Properties=species:S:1:pos:R:3:initial_magmoms:R:1 pbc="T T T"
Si      -1.35736425      -1.35654161       1.35639264       0.00000000
Si       1.35806472       1.35856971       1.35622171       0.00000000
Si       1.36200690      -1.35598123      -1.35803356       0.00000000
Si      -1.35729909       1.35858600      -1.36059750       0.00000000
Si       0.01360215       2.69669547      -2.73056194       0.00000000
Si       0.00034209      -2.71403085       2.71367412       0.00000000
Si      -2.71423980       0.00096111       2.71374249       0.00000000
Si       2.71296061      -2.71505347      -0.00041023       0.00000000
Si       2.71482428       2.71350675      -0.00023930       0.00000000
Si       2.71538943       0.00114030       2.71329807       0.00000000
