10
Lattice="16.28999089631971 0.0 0.0 0.0 16.28999089631971 0.0 0.0 0.0 34.185847837958455" Properties=species:S:1:pos:R:3:initial_magmoms:R:1 pbc="T T T"
Si       1.35227592      -1.35692993      -1.36223843       0.00000000
Si      -1.37740095      -1.35000668       1.35434149       0.00000000
Si      -1.36304946       1.36034374      -1.36134959       0.00000000
Si       1.37468771       1.34564364       1.38305762       0.00000000
Si      -0.15473871       2.53153284       2.74587720       0.00000000
Si       2.71203155      -2.71075925      -0.00273487       0.00000000
Si      -2.71790505      -2.71141085      -0.00502532       0.00000000
Si       2.71151027       0.00276852      -2.71839177       0.00000000
Si       2.71225961       2.71802076      -0.00642694       0.00000000
Si      -0.00341168      -2.71204616      -2.71852851       0.00000000
