10
Lattice="16.28999089631971 0.0 0.0 0.0 16.28999089631971 0.0 0.0 0.0 34.185847837958455" Properties=species:S:1:pos:R:3:initial_magmoms:R:1 pbc="T T T"
Si       0.48500217      -0.78705135      -2.20386028       0.00000000
Si       0.00363267      -1.81146429       1.64598112       0.00000000
Si       2.32469607       0.80014851       0.17756139       0.00000000
Si      -0.72563805       2.31648687       0.43094704       0.00000000
Si      -1.99034478      -1.70101809      -0.70863884       0.00000000
Si      -1.40454009       1.87243776       2.63617476       0.00000000
Si       0.53286219      -3.49664850       0.00540137       0.00000000
Si       1.59475257      -2.87826381      -2.06564682       0.00000000
Si      -2.90374137       0.06172281       2.76529478       0.00000000
Si       1.48639801       0.73824651      -3.68373228       0.00000000
