10
Lattice="16.28999089631971 0.0 0.0 0.0 16.28999089631971 0.0 0.0 0.0 34.185847837958455" Properties=species:S:1:pos:R:3:initial_magmoms:R:1 pbc="T T T"
Si      -1.63634679       0.25624170      -1.64269928       0.00000000
Si       1.49920128       1.81071495      -0.12912002       0.00000000
Si      -1.10092707       0.40435038       2.04520368       0.00000000
Si       0.80485632      -2.21970798       0.05968852       0.00000000
Si      -3.16558683      -1.05524991      -0.34749934       0.00000000
Si      -1.41377652       2.66848119       1.77209278       0.00000000
Si       2.90737404      -1.87318710      -1.11931366       0.00000000
Si       0.35559441       3.71512998       0.65130914       0.00000000
Si       3.05318583       1.51848864       1.68679905       0.00000000
Si      -3.10005216      -0.86923440       2.03802464       0.00000000
