10
Lattice="16.28999089631971 0.0 0.0 0.0 16.28999089631971 0.0 0.0 0.0 34.185847837958455" Properties=species:S:1:pos:R:3:initial_magmoms:R:1 pbc="T T T"
Si       1.34413677       1.32421410      -1.37717423       0.00000000
Si       1.35226302      -1.35557235       1.35146988       0.00000000
Si      -1.36023129       1.35492075       1.35146988       0.00000000
Si      -1.32717888      -1.36694277      -1.38282857       0.00000000
Si      -0.21028761       2.51546922      -2.70295001       0.00000000
Si       2.71215535      -0.00001629       2.70981111       0.00000000
Si      -0.00184077      -2.71459818       2.70984530       0.00000000
Si      -0.00288333       2.71494027       2.70998204       0.00000000
Si      -2.71723716       0.00001629       2.71025553       0.00000000
Si       2.71302524      -2.71531494      -0.00912763       0.00000000
