10
Lattice="16.28999089631971 0.0 0.0 0.0 16.28999089631971 0.0 0.0 0.0 34.185847837958455" Properties=species:S:1:pos:R:3:initial_magmoms:R:1 pbc="T T T"
Si       1.53300303       1.60366905       1.00967958       0.00000000
Si      -2.00278545       1.50464214      -0.08546467       0.00000000
Si      -1.57551993       0.15915330      -2.15104312       0.00000000
Si       0.21335013       0.57045951       2.82142797       0.00000000
Si      -1.72998660      -2.39326164       0.78726633       0.00000000
Si      -3.04182260      -0.53794467       0.27239299       0.00000000
Si      -0.48461121      -1.66311126       2.61097977       0.00000000
Si       3.52326636       0.24345405       0.35307163       0.00000000
Si       0.17948322       1.08582624      -3.40539095       0.00000000
Si       1.99526436       1.99713771      -2.24115707       0.00000000
