10
Lattice="16.28999089631971 0.0 0.0 0.0 16.28999089631971 0.0 0.0 0.0 34.185847837958455" Properties=species:S:1:pos:R:3:initial_magmoms:R:1 pbc="T T T"
Si      -1.35576783      -1.35738054      -1.35652939       0.00000000
Si      -1.35496962       1.35835794       1.35724729       0.00000000
Si       1.35952375       1.35772263      -1.35625590       0.00000000
Si       1.36244673      -1.35760860       1.36131541       0.00000000
Si      -2.69962767      -0.01001835       2.72406662       0.00000000
Si      -2.71277370      -0.00008145      -2.71333226       0.00000000
Si      -2.71332756       2.71352304       0.00064953       0.00000000
Si       2.71521135       2.71283886       0.00003419       0.00000000
Si       0.00262269      -2.71469592      -2.71374249       0.00000000
Si       0.00158013       2.71484253      -2.71360575       0.00000000
