10
Lattice="16.28999089631971 0.0 0.0 0.0 16.28999089631971 0.0 0.0 0.0 34.185847837958455" Properties=species:S:1:pos:R:3:initial_magmoms:R:1 pbc="T T T"
Si      -1.34050410      -1.36140417      -1.35936681       0.00000000
Si       1.29345858      -1.44964710       1.31318171       0.00000000
Si       1.37740095       1.35000668      -1.35434149       0.00000000
Si      -1.49970627       1.22743521       1.34705990       0.00000000
Si      -0.08047260       2.38106436       2.83869183       0.00000000
Si      -2.69886204      -0.00623907      -2.71596457       0.00000000
Si      -2.68516215      -2.72978046       0.00745252       0.00000000
Si       0.01435149       2.71035042      -2.71569108       0.00000000
Si       0.01446552      -2.71976211      -2.71661410       0.00000000
Si      -2.71987614       2.72425068       0.00895670       0.00000000
