10
Lattice="16.28999089631971 0.0 0.0 0.0 16.28999089631971 0.0 0.0 0.0 34.185847837958455" Properties=species:S:1:pos:R:3:initial_magmoms:R:1 pbc="T T T"
Si      -1.36301688      -1.86013881       0.60580775       0.00000000
Si       1.13681394      -0.51466626       2.03487954       0.00000000
Si      -0.58973058       2.26862685      -0.57169025       0.00000000
Si       0.93452472      -0.76484808      -2.09761061       0.00000000
Si       2.77454538      -1.67935239       0.87461122       0.00000000
Si      -2.95889931      -0.10674837      -1.88989728       0.00000000
Si      -2.15590005      -2.35771686      -1.52369828       0.00000000
Si       3.14445870      -1.23066063      -1.40500495       0.00000000
Si       1.17185373       1.45836225       3.25353733       0.00000000
Si      -0.07840377      -2.88396531      -2.43598232       0.00000000
