10
Lattice="16.28999089631971 0.0 0.0 0.0 16.28999089631971 0.0 0.0 0.0 34.185847837958455" Properties=species:S:1:pos:R:3:initial_magmoms:R:1 pbc="T T T"
Si      -0.63291537       1.75554628      -1.37806648       0.00000000
Si      -1.39380498      -1.60717140       0.99036457       0.00000000
Si       1.82865580      -0.69527349      -1.39799684       0.00000000
Si       1.68320890       0.68044959       1.57730171       0.00000000
Si       2.71439360       1.29542871      -0.44708277       0.00000000
Si       2.13589986      -1.59387876       2.05563037       0.00000000
Si       2.73921956      -2.44159407      -0.10067738       0.00000000
Si       1.35952172       3.05462654      -1.52075829       0.00000000
Si       0.03477915      -2.47627548       2.75192810       0.00000000
Si      -2.12911929       3.12850169      -0.27789691       0.00000000
