10
Lattice="16.28999089631971 0.0 0.0 0.0 16.28999089631971 0.0 0.0 0.0 34.185847837958455" Properties=species:S:1:pos:R:3:initial_magmoms:R:1 pbc="T T T"
Si      -1.53272610      -1.41400458       1.03569502       0.00000000
Si       0.78833567       1.37090124       1.73284741       0.00000000
Si       1.57728155      -1.47101958      -1.01313235       0.00000000
Si      -1.14999255       0.82730394      -1.95372230       0.00000000
Si       3.21330743       0.32904171      -1.07326529       0.00000000
Si      -2.68354944      -2.38790223      -0.72880850       0.00000000
Si      -1.41903819       2.55717162       2.22026950       0.00000000
Si       3.01730615       0.52315335       2.22163694       0.00000000
Si      -1.40234094       3.15669249      -1.63883628       0.00000000
Si      -3.16742760      -0.54977121      -2.14130015       0.00000000
