10
Lattice="16.28999089631971 0.0 0.0 0.0 16.28999089631971 0.0 0.0 0.0 34.185847837958455" Properties=species:S:1:pos:R:3:initial_magmoms:R:1 pbc="T T T"
Si      -0.68168763      -1.33411842      -1.88801706       0.00000000
Si       1.60598223       0.82215630       1.67265092       0.00000000
Si      -0.91520478      -1.76696001       1.60260066       0.00000000
Si       1.18892565       1.53256320      -1.82689273       0.00000000
Si      -1.70153937       0.25119180      -3.32399440       0.00000000
Si      -2.27118438      -0.34538058       2.98864271       0.00000000
Si       0.43080534       2.38744611       2.99342531       0.00000000
Si       3.45356212       1.86320133       0.45808074       0.00000000
Si      -2.99012724       2.66971501       0.13428209       0.00000000
Si       1.07523774      -2.43861300      -3.01146720       0.00000000
