10
Lattice="16.28999089631971 0.0 0.0 0.0 16.28999089631971 0.0 0.0 0.0 34.185847837958455" Properties=species:S:1:pos:R:3:initial_magmoms:R:1 pbc="T T T"
Si       0.22937949       1.60120926       1.71322472       0.00000000
Si      -2.31169435      -0.49383135      -0.13595719       0.00000000
Si       1.19656566      -1.80716373       0.98075834       0.00000000
Si       0.91963566       0.25228323      -2.19825380       0.00000000
Si       1.14709293      -3.39339922      -0.72651804       0.00000000
Si       0.73643832       0.13507668       3.61587333       0.00000000
Si       1.85036481      -1.98609309      -2.52780556       0.00000000
Si       0.11870523      -2.11699953       3.08202683       0.00000000
Si      -3.42144476       1.59738111      -0.27417065       0.00000000
Si      -2.46339009      -2.02354380      -2.10991752       0.00000000
