10
Lattice="16.28999089631971 0.0 0.0 0.0 16.28999089631971 0.0 0.0 0.0 34.185847837958455" Properties=species:S:1:pos:R:3:initial_magmoms:R:1 pbc="T T T"
Si       1.57775166       1.71598860      -0.30165609       0.00000000
Si      -0.22937949      -1.60120926      -1.71322472       0.00000000
Si      -1.81113035       1.58337171       0.39402630       0.00000000
Si       0.50705883      -1.46613258       1.90264861       0.00000000
Si      -0.90973134       1.93122837       2.59511753       0.00000000
Si       0.90301986       3.10658445       1.56660154       0.00000000
Si       0.96718617      -3.40837299      -0.73246639       0.00000000
Si      -0.58727079      -0.25387965       3.59378926       0.00000000
Si       1.31471703       2.37107466      -2.59952751       0.00000000
Si      -2.54107384      -2.09504061      -1.84918191       0.00000000
