10
Lattice="16.28999089631971 0.0 0.0 0.0 16.28999089631971 0.0 0.0 0.0 34.185847837958455" Properties=species:S:1:pos:R:3:initial_magmoms:R:1 pbc="T T T"
Si       1.09432962      -1.21225293      -1.69114065       0.00000000
Si       0.57932127      -0.32242797       2.26891599       0.00000000
Si      -2.17384348      -0.92258415       0.21393516       0.00000000
Si      -0.32246055       2.18510802      -0.99867173       0.00000000
Si      -2.35380400       0.67482954       1.87553922       0.00000000
Si       0.58727079       0.25387965      -3.59378926       0.00000000
Si       0.18298557      -2.60006319       2.61463766       0.00000000
Si       3.39721434      -1.44547686      -0.94633317       0.00000000
Si      -1.25281666       3.55662828       0.72723595       0.00000000
Si      -1.22385955       1.83725136      -3.19976296       0.00000000
