10
Lattice="16.28999089631971 0.0 0.0 0.0 16.28999089631971 0.0 0.0 0.0 34.185847837958455" Properties=species:S:1:pos:R:3:initial_magmoms:R:1 pbc="T T T"
Si       1.81275120       1.17535608      -1.02851599       0.00000000
Si      -0.93035611       1.37152026       1.72590768       0.00000000
Si      -0.90139901      -0.34785666      -2.20109123       0.00000000
Si       0.32246055      -2.18510802       0.99867173       0.00000000
Si       0.90973134      -1.93122837      -2.59511753       0.00000000
Si      -0.78123582       2.02448862      -2.91116587       0.00000000
Si      -3.07665062       0.43220628       2.07344120       0.00000000
Si       1.41679017      -3.39736095      -0.69246892       0.00000000
Si      -1.85138293      -3.10769217       1.21260689       0.00000000
Si       2.48748300      -0.21523977      -2.89677362       0.00000000
