10
Lattice="16.28999089631971 0.0 0.0 0.0 16.28999089631971 0.0 0.0 0.0 34.185847837958455" Properties=species:S:1:pos:R:3:initial_magmoms:R:1 pbc="T T T"
Si      -1.70408291      -0.99005733       1.32635151       0.00000000
Si      -1.52466485       0.60466851      -1.91939969       0.00000000
Si       1.75873845      -1.81480374      -0.22535323       0.00000000
Si       1.19702667       1.90229733       1.23426162       0.00000000
Si      -0.26549768      -2.19809115       2.72425605       0.00000000
Si       0.22787267       1.46997702      -3.22950466       0.00000000
Si       2.44744707       0.53538714       2.71066717       0.00000000
Si       3.65171790      -0.87350238       1.23164640       0.00000000
Si      -3.19070831      -2.40370353      -0.25803492       0.00000000
Si       1.07810315      -3.61292815       1.36360727       0.00000000
