10
Lattice="16.28999089631971 0.0 0.0 0.0 16.28999089631971 0.0 0.0 0.0 34.185847837958455" Properties=species:S:1:pos:R:3:initial_magmoms:R:1 pbc="T T T"
Si       1.35685600      -1.35342207       1.35683706       0.00000000
Si      -1.35675123      -1.35588186      -1.35649520       0.00000000
Si       1.35752389       1.35944937      -1.35632427       0.00000000
Si      -1.35406782       1.35896067       1.36111029       0.00000000
Si       0.00907353      -2.71155195       2.68564171       0.00000000
Si       2.70987082       0.00962739       2.71640899       0.00000000
Si       2.71454605      -2.71215468       0.00085465       0.00000000
Si       0.00049847      -2.71332756      -2.71377668       0.00000000
Si      -2.71389186       0.00187335      -2.71394760       0.00000000
Si       0.00337692       2.70953199       2.71931479       0.00000000
