10
Lattice="16.28999089631971 0.0 0.0 0.0 16.28999089631971 0.0 0.0 0.0 34.185847837958455" Properties=species:S:1:pos:R:3:initial_magmoms:R:1 pbc="T T T"
Si      -1.71033447      -1.03231359      -1.20207764       0.00000000
Si       1.03216698       1.76011821      -1.13066336       0.00000000
Si      -0.87050828       1.56879216       1.49874259       0.00000000
Si      -0.34036000      -2.28279915      -2.58431480       0.00000000
Si       2.36043729       0.43838019      -2.55354752       0.00000000
Si      -2.52546218      -2.82626613       0.03069891       0.00000000
Si       2.29664565       3.11417559       0.35891742       0.00000000
Si       2.71598283      -2.83809267      -0.13773486       0.00000000
Si      -2.77072442       2.84612364       0.25140287       0.00000000
Si       3.66557580      -0.99883764      -1.23975046       0.00000000
