10
Lattice="16.28999089631971 0.0 0.0 0.0 16.28999089631971 0.0 0.0 0.0 34.185847837958455" Properties=species:S:1:pos:R:3:initial_magmoms:R:1 pbc="T T T"
Si      -1.11906503      -1.94346216      -0.48824255       0.00000000
Si       2.16810126       0.14709870       0.81280317       0.00000000
Si      -1.05662546       1.98047304       0.64440359       0.00000000
Si      -0.18427574       1.36889757      -2.59375010       0.00000000
Si      -3.08577302      -1.41882642       0.62966948       0.00000000
Si       1.65517803      -0.26280657       3.08585565       0.00000000
Si      -0.32150270      -3.25260801       1.29978085       0.00000000
Si       0.55414345       3.49115877      -0.19021016       0.00000000
Si      -1.42653878       1.53178128       2.92401976       0.00000000
Si       2.62821231       2.46392766       0.33403011       0.00000000
