10
Lattice="16.28999089631971 0.0 0.0 0.0 16.28999089631971 0.0 0.0 0.0 34.185847837958455" Properties=species:S:1:pos:R:3:initial_magmoms:R:1 pbc="T T T"
Si      -1.10394072       1.77318279       1.04092546       0.00000000
Si       0.51292323       0.40990527      -2.27305248       0.00000000
Si       2.07640485      -0.70006275       0.92958209       0.00000000
Si      -1.88774059      -1.54966770       0.06184223       0.00000000
Si      -0.92927934       0.88457958       3.21306126       0.00000000
Si      -1.65517803       0.26280657      -3.08585565       0.00000000
Si      -3.08171681       1.79458785      -0.16183589       0.00000000
Si       2.13744348      -1.30219002      -2.73278402       0.00000000
Si       2.76962580      -2.40661944      -0.56519494       0.00000000
Si       3.62346615       1.09182096       0.73397056       0.00000000
