10
Lattice="16.28999089631971 0.0 0.0 0.0 16.28999089631971 0.0 0.0 0.0 34.185847837958455" Properties=species:S:1:pos:R:3:initial_magmoms:R:1 pbc="T T T"
Si      -0.17466138       0.88860321      -2.17213580       0.00000000
Si       2.00599947       1.06396506       0.61917442       0.00000000
Si      -1.62044596       0.95182470       1.41785883       0.00000000
Si      -0.12016319      -2.37234528       0.71007464       0.00000000
Si       2.59398702      -0.84913254       1.88264988       0.00000000
Si      -3.17049731      -0.85600692       0.96346029       0.00000000
Si       0.92927934      -0.88457958      -3.21306126       0.00000000
Si       0.78123582      -2.02448862       2.91116587       0.00000000
Si       0.37789542       3.21330024      -2.08701299       0.00000000
Si       1.58353461       3.29390316       1.38965549       0.00000000
