10
Lattice="16.28999089631971 0.0 0.0 0.0 16.28999089631971 0.0 0.0 0.0 34.185847837958455" Properties=species:S:1:pos:R:3:initial_magmoms:R:1 pbc="T T T"
Si       1.62044596      -0.95182470      -1.41785883       0.00000000
Si      -1.55005135      -1.80783162      -0.45439854       0.00000000
Si      -0.70609903       2.22679413      -0.65226634       0.00000000
Si       0.88827073       0.56941695       2.24693448       0.00000000
Si      -2.22895339      -2.25188073       1.75082918       0.00000000
Si      -1.83900337       2.86774047       1.30634453       0.00000000
Si       1.39502168       3.10919085      -1.34856408       0.00000000
Si      -2.98837690      -0.64130472      -2.06708263       0.00000000
Si       3.62644543       0.11214036      -0.79868441       0.00000000
Si       1.50028277      -3.32416998      -0.70778419       0.00000000
