10
Lattice="16.28999089631971 0.0 0.0 0.0 16.28999089631971 0.0 0.0 0.0 34.185847837958455" Properties=species:S:1:pos:R:3:initial_magmoms:R:1 pbc="T T T"
Si       1.86670368       1.45168335       0.04676627       0.00000000
Si       0.90386694      -1.52160003       1.76655467       0.00000000
Si      -1.96328220       0.93097350       1.37478464       0.00000000
Si      -0.70278481      -0.10091655      -2.52284861       0.00000000
Si      -3.69197279       0.16342128      -0.32247528       0.00000000
Si       1.79730828       0.11376936       3.24920397       0.00000000
Si      -2.84907932      -1.04023053      -2.17531509       0.00000000
Si      -1.80377215      -2.98271529      -1.37454534       0.00000000
Si       3.38182029       0.97586874       1.78925409       0.00000000
Si       3.30656049       1.54559520      -1.73021510       0.00000000
