10
Lattice="16.28999089631971 0.0 0.0 0.0 16.28999089631971 0.0 0.0 0.0 34.185847837958455" Properties=species:S:1:pos:R:3:initial_magmoms:R:1 pbc="T T T"
Si      -1.35975562       1.35382932      -1.35950356       0.00000000
Si       1.35632169      -1.35873261      -1.35823868       0.00000000
Si       1.35140211       1.35071793       1.37871601       0.00000000
Si      -1.35507550      -1.36604682       1.35998216       0.00000000
Si      -2.71203155       2.71075925       0.00273487       0.00000000
Si       2.71435383       2.71383255       0.00044442       0.00000000
Si      -2.71252025      -2.71661814       0.00177767       0.00000000
Si      -0.00052128       2.71352777      -2.71565690       0.00000000
Si       2.71453302      -0.00092853      -2.71620387       0.00000000
Si      -2.71544323      -0.00128691      -2.71579364       0.00000000
