10
Lattice="16.28999089631971 0.0 0.0 0.0 16.28999089631971 0.0 0.0 0.0 34.185847837958455" Properties=species:S:1:pos:R:3:initial_magmoms:R:1 pbc="T T T"
Si      -1.44089841       1.27715229       1.31027591       0.00000000
Si      -1.35744474      -1.35057132      -1.35820449       0.00000000
Si       1.35507550       1.36604682      -1.35998216       0.00000000
Si       1.37822359      -1.37816658       1.41997836       0.00000000
Si      -0.06198508       2.44266921       2.78334491       0.00000000
Si      -2.42466780      -0.29216115       2.80204458       0.00000000
Si       2.70649391      -2.69990460      -0.00290580       0.00000000
Si       2.70647761       2.71676475       0.01873386       0.00000000
Si      -0.00337692      -2.70953199      -2.71931479       0.00000000
Si       2.71139719       0.00731421      -2.71822084       0.00000000
