10
Lattice="16.28999089631971 0.0 0.0 0.0 16.28999089631971 0.0 0.0 0.0 34.185847837958455" Properties=species:S:1:pos:R:3:initial_magmoms:R:1 pbc="T T T"
Si       0.37965474       2.23686854       0.52215493       0.00000000
Si       2.13535836      -1.03465935       0.47976446       0.00000000
Si      -2.18878467      -0.78754005       0.79574442       0.00000000
Si       1.81732869       2.60489222      -1.51802342       0.00000000
Si       1.33949412      -2.73320136       1.94999604       0.00000000
Si      -1.79680329       3.09940775       0.86346663       0.00000000
Si      -2.16499964      -3.00118815       0.05134717       0.00000000
Si       1.12054023       1.30899991      -3.51146969       0.00000000
Si      -3.04217868       2.36925737      -0.96024682       0.00000000
Si       2.85623973      -2.37882870      -1.46865903       0.00000000
