10
Lattice="16.28999089631971 0.0 0.0 0.0 16.28999089631971 0.0 0.0 0.0 34.64500226677339" Properties=species:S:1:pos:R:3:initial_magmoms:R:1 pbc="T T T"
Si       0.30186999       2.21925186      -0.58757957       0.00000000
Si       0.66365460      -0.42681429       2.18668983       0.00000000
Si      -2.30178419      -0.46577997      -0.31523505       0.00000000
Si       1.53103194      -1.45515312      -1.11390674       0.00000000
Si      -1.79646609       2.97610155       0.24258444       0.00000000
Si      -0.09141948       1.60440210      -3.13454298       0.00000000
Si       1.51622433      -0.31455990      -3.22583261       0.00000000
Si      -0.07545528      -2.62146825       2.62758238       0.00000000
Si      -0.37331793       1.20715416       3.53815748       0.00000000
Si       3.37269789      -1.75773987       0.42779673       0.00000000
