10
Lattice="16.28999089631971 0.0 0.0 0.0 16.28999089631971 0.0 0.0 0.0 34.64500226677339" Properties=species:S:1:pos:R:3:initial_magmoms:R:1 pbc="T T T"
Si       1.35487188       1.35581344      -1.35635260       0.00000000
Si      -1.35907470       1.35279979       1.36106432       0.00000000
Si       1.35580041      -1.36107689       1.35690692       0.00000000
Si      -1.36008468      -1.35871857      -1.35656047       0.00000000
Si       2.71199178      -2.71327284       0.00110864       0.00000000
Si       2.71195920      -0.00122989      -2.71357132       0.00000000
Si      -0.00219915       2.71291705      -2.71381383       0.00000000
Si       2.71283886       2.71638682       0.00065826       0.00000000
Si      -0.00224802      -2.71684035      -2.71367525       0.00000000
Si      -2.71738866      -0.00135696      -2.71339809       0.00000000
