10
Lattice="16.28999089631971 0.0 0.0 0.0 16.28999089631971 0.0 0.0 0.0 34.64500226677339" Properties=species:S:1:pos:R:3:initial_magmoms:R:1 pbc="T T T"
Si      -1.34671059      -1.33221249       1.38223243       0.00000000
Si       1.36000323      -1.35184194      -1.35825807       0.00000000
Si      -1.35301482       1.36120869      -1.35787698       0.00000000
Si       1.34395758       1.36855548       1.37696638       0.00000000
Si      -2.71349046       2.71213839       0.00408811       0.00000000
Si      -2.71191033      -2.71542897       0.00214799       0.00000000
Si       0.00203625      -2.71241532      -2.71526893       0.00000000
Si      -2.71311579       0.00259011      -2.71495712       0.00000000
Si       2.71564074      -2.71376739       0.00474637       0.00000000
Si       0.00228060       2.71720458      -2.71509570       0.00000000
