10
Lattice="16.28999089631971 0.0 0.0 0.0 16.28999089631971 0.0 0.0 0.0 34.64500226677339" Properties=species:S:1:pos:R:3:initial_magmoms:R:1 pbc="T T T"
Si      -1.27327431      -1.55828837       1.09343153       0.00000000
Si       1.14400760      -1.52168474      -1.34828031       0.00000000
Si      -1.56602190       1.21096602      -1.34533548       0.00000000
Si       1.86503395       0.81230085       1.65582416       0.00000000
Si      -1.37241525      -0.39812760       3.06081837       0.00000000
Si       2.49319264      -0.15768720      -2.71783266       0.00000000
Si      -0.22398543       2.55995721      -2.71887201       0.00000000
Si       2.69267998       2.67025680       0.26344074       0.00000000
Si       2.64918568      -2.77285660       0.07822846       0.00000000
Si      -2.77231269       2.70537804       0.05456591       0.00000000
