10
Lattice="16.28999089631971 0.0 0.0 0.0 16.28999089631971 0.0 0.0 0.0 34.64500226677339" Properties=species:S:1:pos:R:3:initial_magmoms:R:1 pbc="T T T"
Si      -2.31300081      -0.01042560      -0.46698025       0.00000000
Si       0.83132757       2.10455397      -0.78907501       0.00000000
Si       0.59740317      -0.09726759       2.35090723       0.00000000
Si       1.50226380      -1.86012252      -0.62925753       0.00000000
Si       0.98460018      -2.31754572       1.69008809       0.00000000
Si       2.68411959       1.04321160      -1.96485776       0.00000000
Si       2.39148603       1.43928666       2.23044649       0.00000000
Si      -0.66169980       2.30461146      -2.73110170       0.00000000
Si      -3.03986061      -1.91257632       0.83165374       0.00000000
Si       3.23793072       2.08549467       0.14041627       0.00000000
