10
Lattice="16.28999089631971 0.0 0.0 0.0 16.28999089631971 0.0 0.0 0.0 34.64500226677339" Properties=species:S:1:pos:R:3:initial_magmoms:R:1 pbc="T T T"
Si      -1.35529542      -1.35599589       1.35721872       0.00000000
Si       1.35769005      -1.35723393      -1.35811949       0.00000000
Si       1.35715248       1.35951453       1.35780769       0.00000000
Si      -1.35842310       1.35852084      -1.35777304       0.00000000
Si       0.00066789      -2.71394658      -2.71506105       0.00000000
Si       2.71489140      -2.71415835      -0.00006929       0.00000000
Si      -2.71539639      -2.71461447       0.00013858       0.00000000
Si      -2.71549413       0.00203625      -2.71471460       0.00000000
Si      -0.00016290       2.71645524      -2.71433351       0.00000000
Si       2.71502172       2.71590138      -0.00017323       0.00000000
