10
Lattice="16.28999089631971 0.0 0.0 0.0 16.28999089631971 0.0 0.0 0.0 34.64500226677339" Properties=species:S:1:pos:R:3:initial_magmoms:R:1 pbc="T T T"
Si       1.56724461       0.97423974      -1.43593221       0.00000000
Si      -1.01683809      -1.66277455      -1.40935948       0.00000000
Si      -1.80098982       1.92238290       0.16823623       0.00000000
Si       1.81828980      -0.83891219       1.95546896       0.00000000
Si       0.19236861       2.33561133      -2.82533616       0.00000000
Si      -2.52201617      -0.41160269      -2.83586825       0.00000000
Si      -1.75407462      -3.43408580       0.03353638       0.00000000
Si       3.35031543       1.94694822      -0.15313100       0.00000000
Si      -3.01536045       0.01013238       2.44881406       0.00000000
Si       2.58172065       1.41794676       2.53816357       0.00000000
