10
Lattice="16.28999089631971 0.0 0.0 0.0 16.28999089631971 0.0 0.0 0.0 34.64500226677339" Properties=species:S:1:pos:R:3:initial_magmoms:R:1 pbc="T T T"
Si       1.49669262       1.38906459      -1.08684897       0.00000000
Si      -0.96956451      -1.66664619      -1.29076957       0.00000000
Si      -1.58786775       1.33819092       1.05764322       0.00000000
Si       0.97116093      -1.29059154       1.68572282       0.00000000
Si      -2.16256266      -0.04712697       2.89199318       0.00000000
Si      -2.93690455      -2.13107409      -0.12441027       0.00000000
Si       3.53952378       1.15100253       0.06433581       0.00000000
Si      -3.21853096       1.87924698      -0.55289990       0.00000000
Si       0.64772298      -3.39188751      -1.56786045       0.00000000
Si       1.53562572       0.04469976       3.54723447       0.00000000
