10
Lattice="16.28999089631971 0.0 0.0 0.0 16.28999089631971 0.0 0.0 0.0 34.64500226677339" Properties=species:S:1:pos:R:3:initial_magmoms:R:1 pbc="T T T"
Si      -1.99653498       1.07818623       0.49715606       0.00000000
Si      -0.76041720      -1.86202845      -1.19109584       0.00000000
Si       1.37930688       1.27646811      -1.41805538       0.00000000
Si       0.84479940      -0.47876310       2.19555896       0.00000000
Si       3.32659719       0.66184641      -0.32372308       0.00000000
Si       2.69462664       0.92142756       1.91344454       0.00000000
Si      -3.23947827      -0.81059040       1.17997479       0.00000000
Si      -2.28007872      -2.80430721       0.30622735       0.00000000
Si       1.26239355      -2.80719054       1.97843861       0.00000000
Si      -1.43207019       2.41347753       2.35866772       0.00000000
