10
Lattice="16.28999089631971 0.0 0.0 0.0 16.28999089631971 0.0 0.0 0.0 34.64500226677339" Properties=species:S:1:pos:R:3:initial_magmoms:R:1 pbc="T T T"
Si       1.17356418      -1.53070614       1.49896190       0.00000000
Si      -1.51516548       1.20565548       1.50867636       0.00000000
Si       1.90860156       0.92201400      -1.27688181       0.00000000
Si      -2.03097204      -0.83761551      -1.28024237       0.00000000
Si       2.53615752      -0.16996986       2.88677218       0.00000000
Si       2.62286919      -2.81704599       0.04598780       0.00000000
Si      -0.18236655       2.53957842       2.89193428       0.00000000
Si      -2.83703382       2.63801889       0.11310560       0.00000000
Si       2.76700311       2.71932228       0.11307442       0.00000000
Si       3.61325232      -0.95786829      -1.28602809       0.00000000
