10
Lattice="16.28999089631971 0.0 0.0 0.0 16.28999089631971 0.0 0.0 0.0 34.64500226677339" Properties=species:S:1:pos:R:3:initial_magmoms:R:1 pbc="T T T"
Si      -1.35638685      -1.35583299      -1.35777304       0.00000000
Si       1.35710361      -1.35710361       1.35714943       0.00000000
Si      -1.35783666       1.35812178       1.35711479       0.00000000
Si       1.35837423       1.35912357      -1.35652582       0.00000000
Si       2.71251306      -0.00496845      -2.71544215       0.00000000
Si       0.00138465      -2.71409319       2.71450673       0.00000000
Si       2.71423980       0.00356751       2.71478389       0.00000000
Si       2.71467963      -2.71443528      -0.00034645       0.00000000
Si      -2.71502335       0.00234576       2.71474925       0.00000000
Si       2.71420722       2.71561046       0.00010394       0.00000000
