10
Lattice="16.28999089631971 0.0 0.0 0.0 16.28999089631971 0.0 0.0 0.0 34.64500226677339" Properties=species:S:1:pos:R:3:initial_magmoms:R:1 pbc="T T T"
Si       0.80585001       1.77911481      -1.44483598       0.00000000
Si       1.78875603      -1.71839952      -0.23014688       0.00000000
Si       0.39830679       1.28788740       2.13645455       0.00000000
Si      -1.87607043      -0.96296706      -1.40703826       0.00000000
Si      -0.12463479      -2.35937844       2.20470524       0.00000000
Si       2.11577778       0.37844928      -2.89462620       0.00000000
Si      -1.69572384       2.63389493       1.89387011       0.00000000
Si       0.47382723      -0.60017247       3.67493602       0.00000000
Si      -0.62279928      -2.36687184      -2.88960267       0.00000000
Si       3.59332965      -0.76175298      -1.41036419       0.00000000
