10
Lattice="16.28999089631971 0.0 0.0 0.0 16.28999089631971 0.0 0.0 0.0 34.64500226677339" Properties=species:S:1:pos:R:3:initial_magmoms:R:1 pbc="T T T"
Si      -1.35296595       1.36078189       1.36096038       0.00000000
Si       1.36363590      -1.35595746       1.36099503       0.00000000
Si      -1.34877942      -1.34404763      -1.39118470       0.00000000
Si       1.38543192       1.35708406      -1.38079119       0.00000000
Si       0.23589549      -2.53910016      -2.77581110       0.00000000
Si      -2.71178001       0.00173489       2.71859485       0.00000000
Si      -2.71249677       2.71873258       0.00377631       0.00000000
Si       2.71656927      -2.71524393       0.00284089       0.00000000
Si      -2.71347417      -2.71884402       0.00304876       0.00000000
Si       0.00389331      -2.71407105       2.71838698       0.00000000
