10
Lattice="16.28999089631971 0.0 0.0 0.0 16.28999089631971 0.0 0.0 0.0 34.64500226677339" Properties=species:S:1:pos:R:3:initial_magmoms:R:1 pbc="T T T"
Si      -1.35490446      -1.35736425       1.35704550       0.00000000
Si      -1.35777150       1.35786924      -1.35759982       0.00000000
Si       1.35801585      -1.35764933      -1.35770375       0.00000000
Si       1.35868374       1.35907470       1.35642189       0.00000000
Si      -2.71383255       0.00171045      -2.71526893       0.00000000
Si      -0.00663003      -2.71480085       2.71481854       0.00000000
Si      -2.71459818       2.71516833      -0.00031181       0.00000000
Si      -2.71477737      -2.71509998      -0.00045039       0.00000000
Si       0.00153126       2.71583622      -2.71429886       0.00000000
Si       2.71622718       0.00026064      -2.71395241       0.00000000
