10
Lattice="16.28999089631971 0.0 0.0 0.0 16.28999089631971 0.0 0.0 0.0 34.64500226677339" Properties=species:S:1:pos:R:3:initial_magmoms:R:1 pbc="T T T"
Si      -2.07244638      -0.72821187      -1.10077627       0.00000000
Si      -0.12901680       0.18933867      -2.46208311       0.00000000
Si       1.92401190      -0.41589999       1.55867952       0.00000000
Si      -0.52515702       0.67070817       2.36410699       0.00000000
Si       0.58494132      -2.30292870       0.87367816       0.00000000
Si      -1.90555533      -1.20794260       1.33092315       0.00000000
Si       2.79865458       1.78702929       0.55442428       0.00000000
Si      -1.09374318       3.39200154       0.94605161       0.00000000
Si       4.01045139      -0.26472879       0.49545845       0.00000000
Si      -3.89078505       0.97026498      -1.23090297       0.00000000
