10
Lattice="16.28999089631971 0.0 0.0 0.0 16.28999089631971 0.0 0.0 0.0 34.64500226677339" Properties=species:S:1:pos:R:3:initial_magmoms:R:1 pbc="T T T"
Si       1.28011707       1.92849165      -0.56194225       0.00000000
Si      -0.86525964      -0.08145000      -2.23301022       0.00000000
Si       1.59262443      -1.73408027       0.56966809       0.00000000
Si      -1.56825459       0.11401371       1.87543896       0.00000000
Si       2.10230595      -0.63539145       2.66666196       0.00000000
Si       1.13349078      -0.93302604      -3.24190790       0.00000000
Si       0.09871740      -3.59082818       0.55816594       0.00000000
Si      -0.37012509       3.63182292      -0.47571079       0.00000000
Si      -0.09365121      -0.59771268       3.65058057       0.00000000
Si       2.42365878       1.01186964      -2.61261573       0.00000000
