10
Lattice="16.28999089631971 0.0 0.0 0.0 16.28999089631971 0.0 0.0 0.0 34.64500226677339" Properties=species:S:1:pos:R:3:initial_magmoms:R:1 pbc="T T T"
Si      -0.84644469      -0.64620801       2.09003022       0.00000000
Si       1.32436071       2.00984391       0.04171261       0.00000000
Si      -0.55381113      -1.04228307      -2.10527403       0.00000000
Si       1.82996973      -0.99487917      -1.28401379       0.00000000
Si      -2.40660315       0.01905930      -0.92949129       0.00000000
Si       3.25549134       0.89018334      -0.63230629       0.00000000
Si      -2.89978290       1.82148264       0.65149963       0.00000000
Si       2.48521869      -1.80084321       1.71808127       0.00000000
Si      -1.86786027       1.37992590       2.67965384       0.00000000
Si       0.92289366       0.19520307      -3.52516560       0.00000000
