10
Lattice="16.28999089631971 0.0 0.0 0.0 16.28999089631971 0.0 0.0 0.0 34.64500226677339" Properties=species:S:1:pos:R:3:initial_magmoms:R:1 pbc="T T T"
Si       1.57317417       0.95267178       1.54601473       0.00000000
Si      -1.10345202      -1.74109149       1.49456341       0.00000000
Si       1.07590563      -0.46421613      -2.26651196       0.00000000
Si      -1.89710082       1.83467754       0.02293500       0.00000000
Si      -0.75727323       1.13138937      -3.04810365       0.00000000
Si       0.10764432       2.23609572       2.92967453       0.00000000
Si       3.32210115       1.73954394       0.09302188       0.00000000
Si      -2.76609087      -2.74708044       0.16175761       0.00000000
Si      -2.60843625      -0.49554180       2.92359087       0.00000000
Si      -3.82155255       0.73116036       1.21653711       0.00000000
