10
Lattice="16.28999089631971 0.0 0.0 0.0 16.28999089631971 0.0 0.0 0.0 34.64500226677339" Properties=species:S:1:pos:R:3:initial_magmoms:R:1 pbc="T T T"
Si       1.28347281      -1.40585958       1.46978386       0.00000000
Si      -0.72127233      -1.80727776      -1.43695567       0.00000000
Si      -1.44930501       1.28633985       1.45297410       0.00000000
Si       0.99038313       1.85917770      -1.33201589       0.00000000
Si      -0.57910950      -0.44789355      -3.54001241       0.00000000
Si       2.74900266      -2.68928352       0.08612406       0.00000000
Si      -2.62286919       2.81704599      -0.04598780       0.00000000
Si       2.62428642      -0.06895557       2.84300166       0.00000000
Si      -0.08671167       2.64707613       2.84078437       0.00000000
Si       2.69884575       2.84524398      -0.02365562       0.00000000
