10
Lattice="16.28999089631971 0.0 0.0 0.0 16.28999089631971 0.0 0.0 0.0 34.64500226677339" Properties=species:S:1:pos:R:3:initial_magmoms:R:1 pbc="T T T"
Si       2.10281094      -0.36510777       0.88469527       0.00000000
Si      -0.34630911       2.28608973       0.23610582       0.00000000
Si      -1.84982724      -1.40019066       0.28211441       0.00000000
Si       0.63197055      -0.25958115      -2.23716763       0.00000000
Si      -2.69462664      -0.92142756      -1.91344454       0.00000000
Si       1.48004424       3.05693253      -1.03533183       0.00000000
Si       2.90199834       1.97462493       0.55276132       0.00000000
Si      -1.31531976       0.35504055      -3.33149992       0.00000000
Si       2.85233013      -2.19002760      -0.42939040       0.00000000
Si       1.34444628      -2.51574615      -2.25092170       0.00000000
