10
Lattice="16.28999089631971 0.0 0.0 0.0 16.28999089631971 0.0 0.0 0.0 34.64500226677339" Properties=species:S:1:pos:R:3:initial_magmoms:R:1 pbc="T T T"
Si      -2.10281094       0.36510777      -0.88469527       0.00000000
Si      -0.34314885      -0.97717194       2.09290576       0.00000000
Si       0.74951919      -1.82491983      -1.31408567       0.00000000
Si       0.79918740       2.33973270      -0.33193395       0.00000000
Si      -1.18166031       1.10275155       2.85201283       0.00000000
Si      -1.47084039       0.10552662      -3.12186290       0.00000000
Si      -2.44912005       2.65119750      -0.64858945       0.00000000
Si       1.51348761      -3.41405820       0.30799424       0.00000000
Si       2.68856676      -1.19205333      -2.39684653       0.00000000
Si       1.46072430      -2.44628559       2.53684706       0.00000000
