10
Lattice="16.28999089631971 0.0 0.0 0.0 16.28999089631971 0.0 0.0 0.0 34.64500226677339" Properties=species:S:1:pos:R:3:initial_magmoms:R:1 pbc="T T T"
Si       0.93682161       1.75564239       1.19015835       0.00000000
Si      -0.46068120       0.14493213      -2.29249577       0.00000000
Si      -1.82544111      -0.94793139       1.19185596       0.00000000
Si       1.80683793      -1.83151728      -0.21777865       0.00000000
Si       2.02315284       0.24423597       2.62397029       0.00000000
Si      -2.73471633      -1.09208160      -1.96530818       0.00000000
Si      -0.69092406      -2.46718566       2.60591676       0.00000000
Si       2.80740231       2.55473531      -0.20017897       0.00000000
Si       3.46830390      -0.96567120       1.23146214       0.00000000
Si      -2.68384266      -2.74523967      -0.19810027       0.00000000
