10
Lattice="16.28999089631971 0.0 0.0 0.0 16.28999089631971 0.0 0.0 0.0 34.64500226677339" Properties=species:S:1:pos:R:3:initial_magmoms:R:1 pbc="T T T"
Si      -1.80457362      -0.95664654       1.18021731       0.00000000
Si      -1.47755187       1.14020226      -1.48426202       0.00000000
Si       1.21021668      -1.57688829      -1.48789974       0.00000000
Si       1.43635446       1.31255046       1.57087457       0.00000000
Si      -0.21401802      -1.90993734       2.65813928       0.00000000
Si       2.60020980       2.51951486      -0.10961685       0.00000000
Si      -2.78747964       2.54086779      -0.03447180       0.00000000
Si      -0.14312394       2.47546098      -2.85883789       0.00000000
Si       2.57886990      -0.24074991      -2.85748674       0.00000000
Si       2.65896783      -2.81386944      -0.14918146       0.00000000
