10
Lattice="16.28999089631971 0.0 0.0 0.0 16.28999089631971 0.0 0.0 0.0 34.64500226677339" Properties=species:S:1:pos:R:3:initial_magmoms:R:1 pbc="T T T"
Si      -0.09914094       1.16016077       1.96738684       0.00000000
Si       1.27327431       1.55828837      -1.09343153       0.00000000
Si      -1.64313972      -1.26683893      -1.06422577       0.00000000
Si       2.41728192       0.03660363      -2.44171183       0.00000000
Si       1.92393764       0.45833870       2.84297047       0.00000000
Si      -0.29007603      -2.66897382      -2.43214981       0.00000000
Si      -0.29274759       2.76925439      -2.43876701       0.00000000
Si      -2.80699506      -2.47380333       0.61626564       0.00000000
Si      -2.18558043       1.00898957       3.03060791       0.00000000
Si      -3.03323058       0.06039029      -2.43637650       0.00000000
