10
Lattice="16.28999089631971 0.0 0.0 0.0 16.28999089631971 0.0 0.0 0.0 34.64500226677339" Properties=species:S:1:pos:R:3:initial_magmoms:R:1 pbc="T T T"
Si      -0.23923494       0.01638774      -2.31401028       0.00000000
Si      -1.99875042       0.85157604       1.00889767       0.00000000
Si       1.29016800       1.94489568       0.62929217       0.00000000
Si      -0.12272886      -2.45619710       0.47567615       0.00000000
Si      -2.68840386       1.10299590      -1.50858282       0.00000000
Si      -1.13349078       0.93302604       3.24190790       0.00000000
Si      -3.55960935      -0.88064880       0.70100737       0.00000000
Si      -2.16226944      -2.58104366       1.68302051       0.00000000
Si       1.04697459       3.37782924      -1.30171740       0.00000000
Si       1.84720455       0.16755894      -3.37723135       0.00000000
