10
Lattice="16.28999089631971 0.0 0.0 0.0 16.28999089631971 0.0 0.0 0.0 34.64500226677339" Properties=species:S:1:pos:R:3:initial_magmoms:R:1 pbc="T T T"
Si       1.35630174      -1.35770634       1.36317767       0.00000000
Si      -1.35902583       1.35806472       1.36387057       0.00000000
Si      -1.36145304      -1.37210670      -1.36610863       0.00000000
Si       1.35969372       1.36344042      -1.37854273       0.00000000
Si      -2.59543683       0.09265752      -2.75538786       0.00000000
Si       0.12023649      -2.62922229      -2.78179083       0.00000000
Si       2.71089125       2.71308321       0.00543927       0.00000000
Si       2.70977212      -2.71751409       0.00339521       0.00000000
Si       2.71202503      -0.00081450       2.71970349       0.00000000
Si      -2.72015307       2.71298547       0.00148974       0.00000000
