10
Lattice="16.28999089631971 0.0 0.0 0.0 16.28999089631971 0.0 0.0 0.0 34.64500226677339" Properties=species:S:1:pos:R:3:initial_magmoms:R:1 pbc="T T T"
Si      -1.35633798      -1.35734796      -1.35628331       0.00000000
Si      -1.35716877       1.35734796       1.35697621       0.00000000
Si       1.35778881      -1.35785295       1.35673369       0.00000000
Si       1.35907104       1.35819504      -1.35676834       0.00000000
Si      -0.00361638      -2.71390911      -2.71260126       0.00000000
Si      -2.71388142       0.00146610       2.71409099       0.00000000
Si       0.00213399      -2.71389445       2.71416028       0.00000000
Si       2.71254142      -0.00161271      -2.71655079       0.00000000
Si      -2.71454931      -2.71525792      -0.00003465       0.00000000
Si       2.71479433       2.71508688      -0.00024252       0.00000000
