10
Lattice="16.28999089631971 0.0 0.0 0.0 16.28999089631971 0.0 0.0 0.0 34.64500226677339" Properties=species:S:1:pos:R:3:initial_magmoms:R:1 pbc="T T T"
Si       1.35671265       1.35588186      -1.35711479       0.00000000
Si      -1.35868374      -1.35907470      -1.35642189       0.00000000
Si       1.35565380      -1.36041048       1.36307373       0.00000000
Si      -1.36420605       1.35677781       1.36030213       0.00000000
Si      -2.71329498       2.71435383       0.00017323       0.00000000
Si      -0.00127062       2.71373481      -2.71422957       0.00000000
Si       2.71388142      -0.00146610      -2.71409099       0.00000000
Si      -2.71358820      -2.71643895       0.00062361       0.00000000
Si      -2.71645524      -0.00120546      -2.71402170       0.00000000
Si      -0.00066789      -2.71672403      -2.71412564       0.00000000
