10
Lattice="16.28999089631971 0.0 0.0 0.0 16.28999089631971 0.0 0.0 0.0 34.64500226677339" Properties=species:S:1:pos:R:3:initial_magmoms:R:1 pbc="T T T"
Si       0.98423270       1.25380872      -1.76249619       0.00000000
Si      -2.10219192      -0.68945796      -0.88375986       0.00000000
Si       1.06658679      -2.10026970       0.40302554       0.00000000
Si      -1.33102332       0.02606400       2.93443333       0.00000000
Si       0.45711369      -1.75394430       2.95542822       0.00000000
Si       0.33687720       3.53686851      -1.34672128       0.00000000
Si       3.41517311       1.15227315      -1.29956941       0.00000000
Si       1.47754765      -3.18884895      -1.89917080       0.00000000
Si       0.72197280       0.28276182      -3.99727331       0.00000000
Si      -2.04942861      -1.65723057      -3.11261268       0.00000000
