10
Lattice="16.28999089631971 0.0 0.0 0.0 16.28999089631971 0.0 0.0 0.0 34.64500226677339" Properties=species:S:1:pos:R:3:initial_magmoms:R:1 pbc="T T T"
Si      -1.35514881      -1.35435060       1.35739195       0.00000000
Si       1.35721764       1.35785295       1.35753053       0.00000000
Si       1.35777150      -1.35777150      -1.35753053       0.00000000
Si      -1.35817875       1.35811359      -1.35718408       0.00000000
Si       0.00097740      -2.71339272      -2.71332880       0.00000000
Si      -2.71301805       0.00184077      -2.71377919       0.00000000
Si       2.71303358       0.00260640       2.71526893       0.00000000
Si       2.71449805      -2.71503801      -0.00079684       0.00000000
Si       2.71485290       2.71489140      -0.00006929       0.00000000
Si      -2.71531494      -2.71489140      -0.00041574       0.00000000
