10
Lattice="16.28999089631971 0.0 0.0 0.0 16.28999089631971 0.0 0.0 0.0 34.64500226677339" Properties=species:S:1:pos:R:3:initial_magmoms:R:1 pbc="T T T"
Si      -1.44875115       1.23698115      -1.33871828       0.00000000
Si      -1.56522465      -0.82979631       1.56207474       0.00000000
Si       1.27956321      -1.49296221      -1.34595909       0.00000000
Si       1.16383905       1.57478688       1.46905285       0.00000000
Si       2.23381512      -0.14941188       2.67158155       0.00000000
Si      -2.64119544      -2.61118926       0.19144839       0.00000000
Si      -0.08009793       2.57311953      -2.70830528       0.00000000
Si       2.63290307      -0.13828581      -2.70962179       0.00000000
Si       2.77097202      -2.68560198       0.04510782       0.00000000
Si      -2.65896783       2.81386944       0.14918146       0.00000000
