10
Lattice="16.28999089631971 0.0 0.0 0.0 16.28999089631971 0.0 0.0 0.0 34.64500226677339" Properties=species:S:1:pos:R:3:initial_magmoms:R:1 pbc="T T T"
Si      -1.35398986      -1.33688772      -1.34581705       0.00000000
Si      -1.35347038       1.35980775       1.35978245       0.00000000
Si       1.36068252      -1.35514881       1.35888168       0.00000000
Si       1.36286538       1.37935575      -1.38717974       0.00000000
Si      -0.00104256      -2.67399861      -2.65230506       0.00000000
Si      -2.58953563       0.08829180      -2.78518604       0.00000000
Si      -2.70977212       2.71751409      -0.00339521       0.00000000
Si      -2.71615780      -2.71229640       0.00394953       0.00000000
Si      -2.71254142       0.00161271       2.71655079       0.00000000
Si       0.00288985      -2.71345951       2.71675866       0.00000000
