10
Lattice="16.28999089631971 0.0 0.0 0.0 16.28999089631971 0.0 0.0 0.0 34.64500226677339" Properties=species:S:1:pos:R:3:initial_magmoms:R:1 pbc="T T T"
Si       1.34532594       1.34970373       1.34965571       0.00000000
Si       1.44515106      -1.20990717      -1.39250814       0.00000000
Si      -1.08633123       1.51140642      -1.43381194       0.00000000
Si      -1.36792017      -1.36831113       1.34653766       0.00000000
Si      -2.02315284      -0.24423597      -2.62397029       0.00000000
Si      -0.21631491      -2.07575325      -2.84174893       0.00000000
Si       2.44473804       0.46622047      -2.74242165       0.00000000
Si       0.78424947       2.31049934      -2.82414926       0.00000000
Si      -2.69905752       2.70401687      -0.03709442       0.00000000
Si       2.70779533      -0.00613698       2.70441464       0.00000000
