10
Lattice="16.28999089631971 0.0 0.0 0.0 16.28999089631971 0.0 0.0 0.0 34.64500226677339" Properties=species:S:1:pos:R:3:initial_magmoms:R:1 pbc="T T T"
Si      -1.34203647      -1.34899119       1.37353653       0.00000000
Si      -1.35410736       1.36047564      -1.35839665       0.00000000
Si       1.36013311      -1.35531171      -1.35808485       0.00000000
Si       1.37175766       1.35676152       1.39283380       0.00000000
Si       0.22398543      -2.55995721       2.71887201       0.00000000
Si      -2.54832726       0.14542083       2.77343792       0.00000000
Si       2.71559795       2.70992295       0.00297947       0.00000000
Si      -2.71373592       0.00061902      -2.71665473       0.00000000
Si      -2.71640748       2.71399545       0.00259838       0.00000000
Si      -2.71479477      -2.71567332       0.00353379       0.00000000
