10
Lattice="16.28999089631971 0.0 0.0 0.0 16.28999089631971 0.0 0.0 0.0 34.64500226677339" Properties=species:S:1:pos:R:3:initial_magmoms:R:1 pbc="T T T"
Si       1.06997607      -1.72419876       1.20252870       0.00000000
Si       1.65579446       1.09457397      -1.33078457       0.00000000
Si      -1.16383905      -1.57478688      -1.46905285       0.00000000
Si       0.18425619       1.88615394       2.16229973       0.00000000
Si       1.39540140      -0.03062520       2.88173825       0.00000000
Si      -2.38645242       2.55163302       0.25100318       0.00000000
Si      -2.72906370      -2.40458319       0.09302188       0.00000000
Si       0.13046661       2.35646253      -2.79741227       0.00000000
Si      -2.61259020      -0.33780573      -2.80777113       0.00000000
Si       2.86127890      -2.78844075       0.04981954       0.00000000
