10
Lattice="16.28999089631971 0.0 0.0 0.0 16.28999089631971 0.0 0.0 0.0 34.64500226677339" Properties=species:S:1:pos:R:3:initial_magmoms:R:1 pbc="T T T"
Si       1.16571240      -1.44472752      -1.60118896       0.00000000
Si      -0.82764603      -1.85795595       1.39238342       0.00000000
Si      -1.54490776       1.24646193      -1.58947895       0.00000000
Si       1.39110084       1.80234189       1.66046660       0.00000000
Si       2.54058840      -2.80609911      -0.21178502       0.00000000
Si      -2.69267998      -2.67025680      -0.26344074       0.00000000
Si       2.66660784       2.80873809      -0.16733545       0.00000000
Si       2.51242299      -0.11251503      -2.98342139       0.00000000
Si      -2.77936396       2.77562052      -0.22869179       0.00000000
Si      -0.20106747       2.59962336      -2.97933328       0.00000000
