10
Lattice="16.28999089631971 0.0 0.0 0.0 16.28999089631971 0.0 0.0 0.0 34.64500226677339" Properties=species:S:1:pos:R:3:initial_magmoms:R:1 pbc="T T T"
Si      -0.87706989      -1.91339082      -1.11782162       0.00000000
Si      -1.33358085       1.72320507      -1.06498796       0.00000000
Si       2.37271248       0.10914300      -1.05002132       0.00000000
Si      -1.41534036      -0.15148071       2.21956796       0.00000000
Si       2.85536074       1.90114074       0.58040805       0.00000000
Si       1.24571259       2.39049301       2.31889523       0.00000000
Si       2.59578122      -2.48847669      -0.41934334       0.00000000
Si       0.24612561       0.71436537       3.66880875       0.00000000
Si      -2.44174068      -1.12128957      -2.74125269       0.00000000
Si      -1.75286916       1.09890711      -3.30773344       0.00000000
