10
Lattice="16.28999089631971 0.0 0.0 0.0 16.28999089631971 0.0 0.0 0.0 34.64500226677339" Properties=species:S:1:pos:R:3:initial_magmoms:R:1 pbc="T T T"
Si       1.22943888       1.40877549       1.39855023       0.00000000
Si       1.30302081      -1.93582215      -0.29773932       0.00000000
Si       0.27738612       1.06106544      -2.15592505       0.00000000
Si      -2.13632273      -1.00826955       0.60251157       0.00000000
Si      -0.19489356      -2.99643147      -1.90291246       0.00000000
Si      -2.41023908      -2.19379059      -1.43284880       0.00000000
Si       2.74910040       2.35105425      -0.09877296       0.00000000
Si      -1.93506955       1.29481065      -2.88700430       0.00000000
Si       1.18954467       3.18997296      -1.66410432       0.00000000
Si       1.45660293      -2.97877311       1.87824520       0.00000000
