10
Lattice="16.28999089631971 0.0 0.0 0.0 16.28999089631971 0.0 0.0 0.0 34.64500226677339" Properties=species:S:1:pos:R:3:initial_magmoms:R:1 pbc="T T T"
Si      -1.35581594       1.35524655      -1.35773840       0.00000000
Si      -1.35333986      -1.35467640       1.36366270       0.00000000
Si       1.36056830      -1.35821133      -1.35742659       0.00000000
Si       1.35976194       1.35749457       1.36660752       0.00000000
Si       0.13806896      -2.54731617       2.75472960       0.00000000
Si      -2.63290307       0.13828581       2.70962179       0.00000000
Si      -2.71300100       2.71140534       0.00131651       0.00000000
Si       2.71271649       2.71241532       0.00339521       0.00000000
Si       0.00181932       2.71228500      -2.71533822       0.00000000
Si      -2.71303358      -0.00260640      -2.71526893       0.00000000
