10
Lattice="16.28999089631971 0.0 0.0 0.0 16.28999089631971 0.0 0.0 0.0 34.64500226677339" Properties=species:S:1:pos:R:3:initial_magmoms:R:1 pbc="T T T"
Si       0.73910988       2.19465396      -0.44089255       0.00000000
Si       0.97119351      -0.84471795       2.00840655       0.00000000
Si      -2.36352329       0.13921434       0.34087237       0.00000000
Si       0.78687216      -1.49822388      -1.69559665       0.00000000
Si      -0.99614653      -1.30914585       3.17476585       0.00000000
Si      -2.38399982       0.58038012       2.61919828       0.00000000
Si       0.07545528       2.62146825      -2.62758238       0.00000000
Si       3.05885475       2.17103346      -0.17779825       0.00000000
Si      -3.19939577      -2.02921272       0.11190342       0.00000000
Si      -0.43230402      -3.51152127      -1.64037248       0.00000000
