10
Lattice="16.28999089631971 0.0 0.0 0.0 16.28999089631971 0.0 0.0 0.0 34.64500226677339" Properties=species:S:1:pos:R:3:initial_magmoms:R:1 pbc="T T T"
Si       1.96734004       0.46442790      -1.16635930       0.00000000
Si       0.49061896      -0.22916772       2.31123868       0.00000000
Si      -0.93848971      -1.79152533      -1.29537736       0.00000000
Si      -1.38785328       1.88952597      -0.55556757       0.00000000
Si      -1.36737675       1.44836019      -2.83389348       0.00000000
Si      -2.89938609      -0.87343722       1.71427032       0.00000000
Si       0.99614653       1.30914585      -3.17476585       0.00000000
Si      -3.18384207       1.37678193       0.89734071       0.00000000
Si       2.93690455       2.13107409       0.12441027       0.00000000
Si      -2.49583392      -2.77120593       0.18296036       0.00000000
