10
Lattice="16.28999089631971 0.0 0.0 0.0 16.28999089631971 0.0 0.0 0.0 34.64500226677339" Properties=species:S:1:pos:R:3:initial_magmoms:R:1 pbc="T T T"
Si      -0.98423270      -1.25380872       1.76249619       0.00000000
Si      -0.64735550       2.28305979       0.41577490       0.00000000
Si      -0.26225990      -0.97104690      -2.23477712       0.00000000
Si       2.43094041      -0.10153557       0.46292678       0.00000000
Si      -0.01557748       3.17775546      -1.64601962       0.00000000
Si      -3.08642462      -1.94326668       0.87873633       0.00000000
Si       0.97434888       2.99045304       2.08233902       0.00000000
Si       1.53142290      -0.04476492      -3.45798890       0.00000000
Si       2.99778354       2.19545217       0.85819183       0.00000000
Si      -0.70854074      -3.31692093      -1.92172470       0.00000000
