10
Lattice="16.28999089631971 0.0 0.0 0.0 16.28999089631971 0.0 0.0 0.0 34.64500226677339" Properties=species:S:1:pos:R:3:initial_magmoms:R:1 pbc="T T T"
Si       1.41560589      -1.21694445       1.41569952       0.00000000
Si       1.35295455       1.35492075      -1.36321231       0.00000000
Si      -1.35976194      -1.35749457      -1.36660752       0.00000000
Si      -1.17303150       1.45015209       1.48128254       0.00000000
Si       2.38458396       0.47617299       2.78320781       0.00000000
Si       0.03245294      -2.43286263       2.86188666       0.00000000
Si       0.77694015       2.39513499       2.87449744       0.00000000
Si      -2.69835935       2.71204065       0.01465484       0.00000000
Si       2.71665561      -2.69760771       0.01108641       0.00000000
Si      -2.71310180      -2.71217097      -0.00294483       0.00000000
