10
Lattice="16.28999089631971 0.0 0.0 0.0 16.28999089631971 0.0 0.0 0.0 34.64500226677339" Properties=species:S:1:pos:R:3:initial_magmoms:R:1 pbc="T T T"
Si      -0.66365460       0.42681429      -2.18668983       0.00000000
Si       2.31974487      -0.02362050       0.26309429       0.00000000
Si      -0.73910988      -2.19465396       0.44089255       0.00000000
Si      -1.03697253       1.63396845       1.35146765       0.00000000
Si       2.70904329      -1.33092558      -1.75889310       0.00000000
Si       0.86737734      -1.02833883      -3.30059657       0.00000000
Si       2.69834076       0.01633887       2.65321969       0.00000000
Si       3.15551961       2.08044477      -0.30030305       0.00000000
Si      -3.10263317      -2.05543962       0.78176491       0.00000000
Si      -2.01688282       0.50652126       3.18716876       0.00000000
