10
Lattice="16.28999089631971 0.0 0.0 0.0 16.28999089631971 0.0 0.0 0.0 34.385447050020396" Properties=species:S:1:pos:R:3:initial_magmoms:R:1 pbc="T T T"
Si      -0.24555546       2.36963041       0.50777018       0.00000000
Si      -1.40799357      -0.98591967      -1.73515940       0.00000000
Si       2.15309817      -0.49963059      -1.07667772       0.00000000
Si      -0.92550006      -0.54296199       2.22594316       0.00000000
Si       2.04540498       3.07756286       0.51230906       0.00000000
Si       3.23737686       1.64140388      -0.98466221       0.00000000
Si      -0.46175634      -3.12810354      -2.09627557       0.00000000
Si      -1.75829536      -2.75617026       1.97114685       0.00000000
Si      -3.12518111       0.75948867       2.28199147       0.00000000
Si      -0.18096561      -3.97016622       0.26363337       0.00000000
