10
Lattice="16.28999089631971 0.0 0.0 0.0 16.28999089631971 0.0 0.0 0.0 34.385447050020396" Properties=species:S:1:pos:R:3:initial_magmoms:R:1 pbc="T T T"
Si      -1.35656604      -1.35618712      -1.35791645       0.00000000
Si       1.35852084       1.35879288      -1.35726312       0.00000000
Si      -1.35703845       1.35874401       1.36049536       0.00000000
Si       1.36194174      -1.35626739       1.36420899       0.00000000
Si      -2.71370712       0.00155407      -2.71521396       0.00000000
Si       0.00122175      -2.71283464      -2.71648622       0.00000000
Si       2.71588509       0.00013195      -2.71480133       0.00000000
Si      -2.71595677      -2.71548991      -0.00037824       0.00000000
Si       0.00070047       2.71667841      -2.71517957       0.00000000
Si       2.71648782      -2.71547362      -0.00051578       0.00000000
