10
Lattice="16.28999089631971 0.0 0.0 0.0 16.28999089631971 0.0 0.0 0.0 34.385447050020396" Properties=species:S:1:pos:R:3:initial_magmoms:R:1 pbc="T T T"
Si      -0.81537966       1.94228684       0.97823213       0.00000000
Si       1.83306483      -0.99034389       1.06986940       0.00000000
Si      -1.44345690      -1.77096069       0.56141151       0.00000000
Si       0.09567117       0.32602236      -2.35856790       0.00000000
Si      -3.44592144      -0.43374717       0.44123430       0.00000000
Si      -3.02624217       1.89338426      -0.00570799       0.00000000
Si      -1.13463108      -3.23849421      -1.28670415       0.00000000
Si      -0.72974313       1.55228306       3.31451825       0.00000000
Si      -0.38866311      -1.84131720      -3.24791360       0.00000000
Si       1.92689523      -3.25352988       0.40341029       0.00000000
