10
Lattice="16.28999089631971 0.0 0.0 0.0 16.28999089631971 0.0 0.0 0.0 34.385447050020396" Properties=species:S:1:pos:R:3:initial_magmoms:R:1 pbc="T T T"
Si      -1.39893633       1.36622601       1.25084011       0.00000000
Si       1.34157924       1.34796492      -1.35719435       0.00000000
Si      -1.37430585      -1.36414089      -1.35640349       0.00000000
Si       1.26201888      -1.24028802       1.61391624       0.00000000
Si      -2.33903223      -0.32550678       2.54744727       0.00000000
Si      -0.68887152      -2.21389245       2.74843032       0.00000000
Si       2.69369811      -2.71410622       0.04026538       0.00000000
Si       2.69923671      -0.00513135      -2.71827426       0.00000000
Si       2.70826137       2.71697652       0.02792100       0.00000000
Si      -0.01689273       2.70829395      -2.71779287       0.00000000
