10
Lattice="16.28999089631971 0.0 0.0 0.0 16.28999089631971 0.0 0.0 0.0 34.385447050020396" Properties=species:S:1:pos:R:3:initial_magmoms:R:1 pbc="T T T"
Si       2.06835759       0.21996387       1.15132857       0.00000000
Si       0.05536971      -1.54272816      -1.83075099       0.00000000
Si      -0.79733034       1.97175789      -1.16587362       0.00000000
Si      -1.55976750      -0.74981241       1.70851066       0.00000000
Si      -2.24362170      -1.34019459      -2.17044502       0.00000000
Si      -3.22178733       0.94323987      -1.05446471       0.00000000
Si       2.85961176       2.17906443       0.08757978       0.00000000
Si      -0.25490592      -2.16702612       3.03365776       0.00000000
Si      -1.50825852       3.46652829       0.68856896       0.00000000
Si       1.16276391      -3.55758939      -1.44580570       0.00000000
