10
Lattice="16.28999089631971 0.0 0.0 0.0 16.28999089631971 0.0 0.0 0.0 34.385447050020396" Properties=species:S:1:pos:R:3:initial_magmoms:R:1 pbc="T T T"
Si       1.58454459      -1.57001391      -0.68086662       0.00000000
Si      -1.30486158       1.41721371      -1.32514710       0.00000000
Si       1.20089880       1.32012531       1.52643962       0.00000000
Si      -1.83765861      -1.04431932       1.07513037       0.00000000
Si      -1.72766853       2.95165026       0.52128367       0.00000000
Si       0.29023893      -3.51248238      -0.36692731       0.00000000
Si       3.15881019      -1.21712364       1.07052272       0.00000000
Si      -0.52369092       2.45895921       2.54638132       0.00000000
Si      -3.32056989       0.06815736      -1.66380956       0.00000000
Si       0.25490592       2.16702612      -3.03365776       0.00000000
