10
Lattice="16.28999089631971 0.0 0.0 0.0 16.28999089631971 0.0 0.0 0.0 34.385447050020396" Properties=species:S:1:pos:R:3:initial_magmoms:R:1 pbc="T T T"
Si      -0.49772466      -1.48719555       1.77484023       0.00000000
Si      -1.25864685       1.88822277      -0.70538345       0.00000000
Si      -0.49360329      -1.51816284      -1.79327084       0.00000000
Si       2.20810950       0.90205875       0.32198551       0.00000000
Si       3.24171000      -0.78687216       1.57887745       0.00000000
Si      -1.24128171      -0.23899059      -3.60624455       0.00000000
Si      -0.96951564       3.40169409       1.44783444       0.00000000
Si       3.26878398       1.00567944      -1.78226749       0.00000000
Si      -2.79753057      -2.17116378       1.53445143       0.00000000
Si       0.88562214      -3.47578264       1.49624918       0.00000000
