10
Lattice="16.28999089631971 0.0 0.0 0.0 16.28999089631971 0.0 0.0 0.0 34.385447050020396" Properties=species:S:1:pos:R:3:initial_magmoms:R:1 pbc="T T T"
Si      -1.46528550       2.01938985       0.06626079       0.00000000
Si       1.85569164       0.84755241       1.47526514       0.00000000
Si      -0.27759789      -0.41137137      -2.50253985       0.00000000
Si      -0.89982702      -1.96416675       1.60717123       0.00000000
Si      -1.98610938      -0.37524015       2.94415037       0.00000000
Si      -3.17183730       1.07952201       1.53337314       0.00000000
Si       0.73596591       2.32883469       2.94374462       0.00000000
Si       2.97082359       2.59657713       0.11739198       0.00000000
Si      -0.47949615       3.67298775       1.49405680       0.00000000
Si      -1.85238477       2.75020812      -2.46646950       0.00000000
