10
Lattice="16.28999089631971 0.0 0.0 0.0 16.28999089631971 0.0 0.0 0.0 34.385447050020396" Properties=species:S:1:pos:R:3:initial_magmoms:R:1 pbc="T T T"
Si       1.08005958      -0.73497222       1.86819677       0.00000000
Si      -2.31049215      -0.51232050       0.19867922       0.00000000
Si       0.78903873      -0.46547046      -2.19764392       0.00000000
Si       0.88565472       2.25499212       0.01224123       0.00000000
Si       3.14033733       1.61846037      -0.20964819       0.00000000
Si       3.05395146      -0.07455933      -1.81166706       0.00000000
Si       3.02212080       0.49374990       1.90337310       0.00000000
Si      -0.24456177       1.22346045      -3.45453587       0.00000000
Si      -2.95039593      -1.16579385      -2.00168115       0.00000000
Si       0.50432211       3.21800805      -2.11848858       0.00000000
