10
Lattice="16.28999089631971 0.0 0.0 0.0 16.28999089631971 0.0 0.0 0.0 34.385447050020396" Properties=species:S:1:pos:R:3:initial_magmoms:R:1 pbc="T T T"
Si       0.79733034      -1.97175789       1.16587362       0.00000000
Si      -0.71092818       1.49477040       1.85444258       0.00000000
Si       0.56953098       0.37774881      -2.53389939       0.00000000
Si      -2.42445699      -1.02851802       0.11140891       0.00000000
Si      -1.28865303       1.89522747      -2.71731147       0.00000000
Si       0.85270005      -3.51448605      -0.66487738       0.00000000
Si      -2.70179424       2.29348539       1.19283182       0.00000000
Si      -1.44629136      -3.31195248      -1.00457140       0.00000000
Si      -2.97255033       2.17119636      -1.03400536       0.00000000
Si       2.65004091       2.37788388       1.40316772       0.00000000
