10
Lattice="16.28999089631971 0.0 0.0 0.0 16.28999089631971 0.0 0.0 0.0 34.385447050020396" Properties=species:S:1:pos:R:3:initial_magmoms:R:1 pbc="T T T"
Si      -0.74497428      -2.16324684       0.52355311       0.00000000
Si       2.14000101      -0.18129141       0.99583749       0.00000000
Si      -0.92859516       1.59997122       1.49466745       0.00000000
Si      -0.27065835       0.51865731      -2.34281936       0.00000000
Si       0.88361847       3.16544022       1.51901236       0.00000000
Si       0.45900333      -2.65593789       2.54865076       0.00000000
Si      -2.93749425       2.23795278       0.35485801       0.00000000
Si       0.95368176       2.48183037      -2.62959415       0.00000000
Si       1.76766048      -0.83856033       3.32486828       0.00000000
Si      -0.32216733      -3.69768339      -1.32287766       0.00000000
