10
Lattice="16.28999089631971 0.0 0.0 0.0 16.28999089631971 0.0 0.0 0.0 34.385447050020396" Properties=species:S:1:pos:R:3:initial_magmoms:R:1 pbc="T T T"
Si      -1.67065027       0.83303802      -1.37954491       0.00000000
Si       0.44919675      -1.79834174      -1.44958810       0.00000000
Si      -0.15786639      -1.16002719       2.07616007       0.00000000
Si       1.87190019       1.47852927      -0.00460765       0.00000000
Si       2.41740342      -2.18368169      -0.33357341       0.00000000
Si      -0.43202709       0.82552833       3.32311462       0.00000000
Si       3.33775584      -0.10046532      -0.92335293       0.00000000
Si      -2.77460565      -1.27462082      -1.67935179       0.00000000
Si       1.12422177       2.75770152      -1.81758136       0.00000000
Si       2.04773445      -2.06144153       1.98868344       0.00000000
