10
Lattice="16.28999089631971 0.0 0.0 0.0 16.28999089631971 0.0 0.0 0.0 34.385447050020396" Properties=species:S:1:pos:R:3:initial_magmoms:R:1 pbc="T T T"
Si       1.35664749      -1.35694071       1.35733190       0.00000000
Si      -1.35755973       1.35755973       1.35733190       0.00000000
Si       1.35944937       1.35689184      -1.35650664       0.00000000
Si      -1.35868374      -1.36083402      -1.35839784       0.00000000
Si       2.71608057      -0.00211770      -2.71222242       0.00000000
Si       0.00043983       2.71334385       2.71507642       0.00000000
Si       2.71350675       0.00125433       2.71514519       0.00000000
Si       2.71456560      -2.71463076       0.00055017       0.00000000
Si      -2.71492398      -0.00068418       2.71473256       0.00000000
Si      -0.00004887      -2.71422351       2.71562658       0.00000000
