10
Lattice="16.28999089631971 0.0 0.0 0.0 16.28999089631971 0.0 0.0 0.0 34.385447050020396" Properties=species:S:1:pos:R:3:initial_magmoms:R:1 pbc="T T T"
Si       1.35641943      -1.35648459       1.35516561       0.00000000
Si      -1.35759231      -1.35679410      -1.35726312       0.00000000
Si       1.35736425       1.35824391      -1.35740067       0.00000000
Si      -1.35614250       1.36073628       1.35654103       0.00000000
Si       0.00299736      -2.71140534       2.68863399       0.00000000
Si      -2.70971933      -0.00522909       2.69977488       0.00000000
Si      -2.71484253      -2.71313208      -0.00044701       0.00000000
Si       2.71487511      -2.71353933       0.00089402       0.00000000
Si       2.71536381       2.71402803       0.00034385       0.00000000
Si      -0.00014661      -2.71546155      -2.71414801       0.00000000
