10
Lattice="16.28999089631971 0.0 0.0 0.0 16.28999089631971 0.0 0.0 0.0 34.385447050020396" Properties=species:S:1:pos:R:3:initial_magmoms:R:1 pbc="T T T"
Si      -1.25079507      -1.54320057      -1.27239979       0.00000000
Si       0.41124105      -0.48620763       2.28735560       0.00000000
Si       1.64577870       1.28176236      -1.24671385       0.00000000
Si      -2.46312945      -0.02668302      -2.68849645       0.00000000
Si       2.42488053      -1.67892885       2.21473350       0.00000000
Si       0.89557533       1.68113193       3.17670130       0.00000000
Si       0.25633944       2.69690139      -2.66789956       0.00000000
Si      -3.47237640      -0.94061718       1.23815187       0.00000000
Si       0.25708878      -2.73595437      -2.69812438       0.00000000
Si       2.97274581      -0.04577490      -2.69809000       0.00000000
