10
Lattice="16.28999089631971 0.0 0.0 0.0 16.28999089631971 0.0 0.0 0.0 34.385447050020396" Properties=species:S:1:pos:R:3:initial_magmoms:R:1 pbc="T T T"
Si      -2.09239741       0.41963854       0.94271194       0.00000000
Si      -0.30198728      -0.09698740      -2.31792428       0.00000000
Si       1.10395538       2.10765884       0.29980688       0.00000000
Si       1.39502184      -1.90423325       0.47837061       0.00000000
Si       3.22380240      -0.52372091       0.22976369       0.00000000
Si       2.77460565       1.27462082       1.67935179       0.00000000
Si      -0.17142130       2.22264995      -2.98538057       0.00000000
Si      -2.23227964      -1.39668572      -2.66910305       0.00000000
Si       1.35977028      -1.57538702      -3.13626399       0.00000000
Si      -3.64501360      -1.29555740       0.55044254       0.00000000
