10
Lattice="16.28999089631971 0.0 0.0 0.0 16.28999089631971 0.0 0.0 0.0 34.385447050020396" Properties=species:S:1:pos:R:3:initial_magmoms:R:1 pbc="T T T"
Si      -0.56325933       1.96628445      -1.17312895       0.00000000
Si      -0.40523004       0.47550510       2.27686803       0.00000000
Si      -1.26506511      -1.96069698      -0.36850904       0.00000000
Si       2.36050245      -0.43805439       0.24994795       0.00000000
Si       0.67904865       2.61653957       2.36888354       0.00000000
Si       0.64013184       3.54863545       0.12309997       0.00000000
Si       2.41826679      -2.18663928       1.81407404       0.00000000
Si       0.77750541      -1.22109840       3.48108145       0.00000000
Si      -3.02008455      -2.15296785       1.25727019       0.00000000
Si      -0.19359036       1.84404429      -3.49538580       0.00000000
