10
Lattice="16.28999089631971 0.0 0.0 0.0 16.28999089631971 0.0 0.0 0.0 34.385447050020396" Properties=species:S:1:pos:R:3:initial_magmoms:R:1 pbc="T T T"
Si       1.05164982       1.49923453       1.61789606       0.00000000
Si       1.50811191      -1.85212413      -1.01846313       0.00000000
Si      -1.92906180      -1.29415905       1.49945188       0.00000000
Si      -0.63889380       1.78566812      -2.19805655       0.00000000
Si       2.60077995      -0.39408768      -2.58190151       0.00000000
Si       0.55307808       0.34950914      -3.69502782       0.00000000
Si      -2.92985424       1.07773567      -2.20259543       0.00000000
Si       2.15972820       0.08079290       3.16261155       0.00000000
Si       2.70023040       2.71626695       0.21741930       0.00000000
Si      -2.68429878      -1.29189474      -2.71036561       0.00000000
