10
Lattice="16.28999089631971 0.0 0.0 0.0 16.28999089631971 0.0 0.0 0.0 34.385447050020396" Properties=species:S:1:pos:R:3:initial_magmoms:R:1 pbc="T T T"
Si       1.36016613       1.35272160       1.36520273       0.00000000
Si      -1.35314514      -1.35966114       1.36915706       0.00000000
Si       1.38290697      -1.29935882      -1.40943619       0.00000000
Si      -1.12650237       1.49499846      -1.45857990       0.00000000
Si       0.74324754       2.37117240      -2.62822561       0.00000000
Si      -2.15997255      -0.08553879      -2.94444608       0.00000000
Si       2.33111529       0.55965924      -2.77052440       0.00000000
Si      -2.70047475      -2.72101284       0.00074616       0.00000000
Si      -2.70945054       2.71339272      -0.02280788       0.00000000
Si      -2.71060713      -0.00278559       2.72734859       0.00000000
