10
Lattice="16.28999089631971 0.0 0.0 0.0 16.28999089631971 0.0 0.0 0.0 34.385447050020396" Properties=species:S:1:pos:R:3:initial_magmoms:R:1 pbc="T T T"
Si      -1.35744570       1.35643615      -1.35702243       0.00000000
Si       1.35760860      -1.35708431      -1.35798522       0.00000000
Si       1.35791811       1.35718060       1.35795083       0.00000000
Si      -1.35684297      -1.35916943       1.35726312       0.00000000
Si      -0.00060273      -2.71260779       2.71411362       0.00000000
Si      -2.71564074       0.00183860      -2.71246312       0.00000000
Si       2.71441899      -2.71420421      -0.00041263       0.00000000
Si       0.00026064       2.71436403      -2.71452625       0.00000000
Si       2.71526607       0.00036245      -2.71404485       0.00000000
Si      -2.71484253      -2.71495355      -0.00048140       0.00000000
