10
Lattice="16.28999089631971 0.0 0.0 0.0 16.28999089631971 0.0 0.0 0.0 34.385447050020396" Properties=species:S:1:pos:R:3:initial_magmoms:R:1 pbc="T T T"
Si       1.35578412       1.35545343      -1.35980765       0.00000000
Si      -1.35562122      -1.35745777      -1.35853539       0.00000000
Si       1.35384561      -1.32138925       1.40027934       0.00000000
Si      -1.33048575       1.29952986       1.50543010       0.00000000
Si       2.16091737       0.57732900       2.66814025       0.00000000
Si      -0.41169717      -2.34788977       2.63760596       0.00000000
Si      -2.19149370      -0.60641154       2.79282196       0.00000000
Si       0.36766530       2.44934322       2.84213071       0.00000000
Si      -2.70301599       2.70747456       0.01791483       0.00000000
Si      -2.71423980      -0.00142049      -2.71762094       0.00000000
