10
Lattice="16.28999089631971 0.0 0.0 0.0 16.28999089631971 0.0 0.0 0.0 34.385447050020396" Properties=species:S:1:pos:R:3:initial_magmoms:R:1 pbc="T T T"
Si      -1.85359023      -0.80224570      -1.33226489       0.00000000
Si       0.86100795       1.90594140      -1.28739186       0.00000000
Si      -0.36206154      -0.00071676       2.44088671       0.00000000
Si       1.77979653      -1.74147823      -0.15521599       0.00000000
Si      -0.52662312      -2.12978296      -2.78364104       0.00000000
Si       2.19149370       0.60641154      -2.79282196       0.00000000
Si       0.44792613      -2.11745143       2.94263943       0.00000000
Si       3.54533931      -0.71497771      -1.39254261       0.00000000
Si       0.77152698      -3.57815944      -1.32384045       0.00000000
Si       2.55915900       3.05575476       0.04930876       0.00000000
