10
Lattice="16.28999089631971 0.0 0.0 0.0 16.28999089631971 0.0 0.0 0.0 34.385447050020396" Properties=species:S:1:pos:R:3:initial_magmoms:R:1 pbc="T T T"
Si       1.25967312      -1.98357533       0.00096279       0.00000000
Si       1.46517147       1.83762603       0.15095220       0.00000000
Si      -0.95521302       0.61211304       2.10263688       0.00000000
Si      -0.81968022       0.49806675      -2.19575272       0.00000000
Si       1.45689615       0.55737864      -2.92094220       0.00000000
Si      -2.13407145      -2.62903400       0.12505994       0.00000000
Si      -1.91394468       2.59895547       1.47087271       0.00000000
Si      -0.21937743      -3.36941450      -1.18891188       0.00000000
Si       2.54514960       1.35666378       2.15875396       0.00000000
Si      -0.10293651       3.65477553       0.36414209       0.00000000
