10
Lattice="16.28999089631971 0.0 0.0 0.0 16.28999089631971 0.0 0.0 0.0 34.385447050020396" Properties=species:S:1:pos:R:3:initial_magmoms:R:1 pbc="T T T"
Si       1.66478913       1.02378089      -1.23454140       0.00000000
Si      -2.07687726       0.32526080      -0.96746948       0.00000000
Si       0.65428785      -2.13241380      -0.77587366       0.00000000
Si      -0.00500103       0.47961344       2.37844270       0.00000000
Si      -2.99722968      -1.75795557      -0.37768996       0.00000000
Si       2.73031803      -2.26581261       0.35492678       0.00000000
Si       0.70605747       3.01062332      -1.86630557       0.00000000
Si       3.32573382       1.55454167       0.30503347       0.00000000
Si       3.47587875      -0.43413502       1.61350362       0.00000000
Si      -2.16350748      -0.05336441       3.24079581       0.00000000
