10
Lattice="16.28999089631971 0.0 0.0 0.0 16.28999089631971 0.0 0.0 0.0 34.385447050020396" Properties=species:S:1:pos:R:3:initial_magmoms:R:1 pbc="T T T"
Si      -0.95873166       1.98684243      -0.63176417       0.00000000
Si      -1.66478913      -1.02378089       1.23454140       0.00000000
Si       1.66094469       0.53076078       1.53957487       0.00000000
Si       0.95521302      -0.61211304      -2.10263688       0.00000000
Si       2.42038449       1.22551299      -1.95168468       0.00000000
Si      -1.01050128      -3.15619469       0.45866773       0.00000000
Si       3.50036262       0.74455074       0.05611708       0.00000000
Si       0.85227651       3.04266249      -1.73849479       0.00000000
Si       1.81108962      -1.45791590       2.84804501       0.00000000
Si       1.06552890      -3.28959350       1.58946818       0.00000000
