10
Lattice="16.28999089631971 0.0 0.0 0.0 16.28999089631971 0.0 0.0 0.0 34.385447050020396" Properties=species:S:1:pos:R:3:initial_magmoms:R:1 pbc="T T T"
Si      -0.27416070       1.98555552       1.24695455       0.00000000
Si      -1.48544437      -1.74438926       0.58008282       0.00000000
Si       0.15786639       1.16002719      -2.07616007       0.00000000
Si       2.20560084      -0.90141434      -0.08747663       0.00000000
Si       0.60706314      -0.63831455      -3.52574817       0.00000000
Si       2.02564521       2.66952375       1.48734334       0.00000000
Si       2.57526981      -1.02365450      -2.40973348       0.00000000
Si       3.40899201       0.68093666       1.20875230       0.00000000
Si      -1.36906047      -3.20796431      -1.28587890       0.00000000
Si      -1.88237303       3.37615137       0.07671398       0.00000000
