10
Lattice="16.28999089631971 0.0 0.0 0.0 16.28999089631971 0.0 0.0 0.0 34.385447050020396" Properties=species:S:1:pos:R:3:initial_magmoms:R:1 pbc="T T T"
Si       0.87218289      -0.87311142       2.03692625       0.00000000
Si       1.97065017       0.77616963      -1.14341991       0.00000000
Si      -1.15766514      -2.03698305      -0.55295268       0.00000000
Si      -1.77437196       1.67518215       0.19080495       0.00000000
Si      -2.51309088      -2.28182175       1.39226753       0.00000000
Si      -1.74636945       2.28336930       2.43676045       0.00000000
Si       0.60167115       2.78607870       2.51213339       0.00000000
Si      -0.93882528      -1.92893148       3.14365687       0.00000000
Si       1.56023991      -0.14960736      -3.50625161       0.00000000
Si      -0.98311779       3.63428271      -0.87294383       0.00000000
