10
Lattice="16.28999089631971 0.0 0.0 0.0 16.28999089631971 0.0 0.0 0.0 34.385447050020396" Properties=species:S:1:pos:R:3:initial_magmoms:R:1 pbc="T T T"
Si      -0.86721444      -1.75549185      -1.30121481       0.00000000
Si      -1.13772618       1.90369827      -0.82600767       0.00000000
Si       2.37804678      -0.03069036      -0.05343501       0.00000000
Si      -1.09265175      -0.39842082       2.11996715       0.00000000
Si       3.00928428      -2.09794023       1.00917905       0.00000000
Si       3.08446263       1.39116600       1.75097671       0.00000000
Si      -3.16462572      -1.39383756       1.63410051       0.00000000
Si      -1.26097632       3.54014280       0.79777720       0.00000000
Si      -3.48576678       1.40098887      -0.90138061       0.00000000
Si      -1.73939733      -0.88238043      -3.33814107       0.00000000
