10
Lattice="16.28999089631971 0.0 0.0 0.0 16.28999089631971 0.0 0.0 0.0 34.385447050020396" Properties=species:S:1:pos:R:3:initial_magmoms:R:1 pbc="T T T"
Si       0.92489733       1.06502391       1.85461451       0.00000000
Si       0.62297847       1.28451537      -1.86933149       0.00000000
Si       1.00690119      -2.17057734      -0.14971432       0.00000000
Si      -2.13662898       1.08005958       0.16450007       0.00000000
Si      -1.39066101       2.47723659      -1.79670938       0.00000000
Si      -3.36096909      -0.88311348       0.45127486       0.00000000
Si       2.95246476      -1.75378140       1.19008099       0.00000000
Si       1.79688474      -2.12926590      -2.53761302       0.00000000
Si       2.14539300       2.93000085      -1.05587451       0.00000000
Si      -2.65004091      -2.37788388      -1.40316772       0.00000000
