10
Lattice="16.28999089631971 0.0 0.0 0.0 16.28999089631971 0.0 0.0 0.0 34.385447050020396" Properties=species:S:1:pos:R:3:initial_magmoms:R:1 pbc="T T T"
Si      -0.05776434       1.74858489      -1.56412609       0.00000000
Si       2.19683682       0.05725935       0.90052098       0.00000000
Si      -0.81143748      -2.14806456      -0.76146615       0.00000000
Si      -1.64076138       0.96554088       1.66700740       0.00000000
Si       0.91079019       0.65260998      -3.40481448       0.00000000
Si      -1.82653254      -2.89222434       1.24877698       0.00000000
Si       1.40010921       3.38318865      -0.44333182       0.00000000
Si      -2.41826679       2.18663928      -1.81407404       0.00000000
Si      -2.41010550      -1.73232747      -2.41262186       0.00000000
Si      -2.82725982      -0.94951152       2.43390646       0.00000000
