10
Lattice="16.28999089631971 0.0 0.0 0.0 16.28999089631971 0.0 0.0 0.0 34.385447050020396" Properties=species:S:1:pos:R:3:initial_magmoms:R:1 pbc="T T T"
Si      -0.92672181       0.04650795       2.26620854       0.00000000
Si      -2.13543981       0.50461533      -1.09053506       0.00000000
Si       0.36566163      -1.74850344      -1.73777269       0.00000000
Si       2.22308001       1.59870060       0.14816697       0.00000000
Si      -1.12034475       1.24877511      -3.10077819       0.00000000
Si       0.85887396       1.14095160       3.64864668       0.00000000
Si      -0.01567098      -0.78548751      -3.86850250       0.00000000
Si      -3.13616709       2.44732815       0.09459442       0.00000000
Si      -2.55458151       1.97483670       2.35426972       0.00000000
Si       1.81903914       2.81820258       2.25362346       0.00000000
