10
Lattice="16.28999089631971 0.0 0.0 0.0 16.28999089631971 0.0 0.0 0.0 34.385447050020396" Properties=species:S:1:pos:R:3:initial_magmoms:R:1 pbc="T T T"
Si       0.99792540       1.74358779       1.20901569       0.00000000
Si      -1.63867626      -1.06282476       1.33013162       0.00000000
Si      -1.24734159       1.23601094      -1.72108134       0.00000000
Si       1.70359191      -1.80092466      -0.25557277       0.00000000
Si       2.35607157       0.33182730       2.59304102       0.00000000
Si      -0.34808472      -2.42198091       2.64585710       0.00000000
Si      -2.47666644      -2.84550462       0.04558619       0.00000000
Si       0.40228155       2.78139437      -2.59825459       0.00000000
Si       2.14648443      -1.92759570      -2.62088022       0.00000000
Si      -2.54495412       2.95740782      -0.32599420       0.00000000
