10
Lattice="16.28999089631971 0.0 0.0 0.0 16.28999089631971 0.0 0.0 0.0 34.385447050020396" Properties=species:S:1:pos:R:3:initial_magmoms:R:1 pbc="T T T"
Si      -1.29357261       1.30595301       1.57077624       0.00000000
Si      -1.77042978      -1.06323201      -1.27539618       0.00000000
Si       0.75810402       1.92700926      -1.33065363       0.00000000
Si       1.38368889      -1.35892809       1.53636326       0.00000000
Si      -3.42215433       0.88242930      -1.02949467       0.00000000
Si      -2.58416415       2.66510916       0.25505076       0.00000000
Si       2.77822692       2.61325809      -0.10128239       0.00000000
Si       3.06287838      -2.35015830       0.18436799       0.00000000
Si      -2.73059496      -2.74048299       0.11962704       0.00000000
Si      -2.68253946      -0.02090007       2.91521015       0.00000000
