10
Lattice="16.28999089631971 0.0 0.0 0.0 16.28999089631971 0.0 0.0 0.0 34.385447050020396" Properties=species:S:1:pos:R:3:initial_magmoms:R:1 pbc="T T T"
Si      -1.29059154       1.35915615      -1.31572548       0.00000000
Si       1.32584310       1.38803832       1.34123606       0.00000000
Si      -1.38896685      -1.32685308       1.34443391       0.00000000
Si       1.29357261      -1.30595301      -1.57077624       0.00000000
Si      -2.12858172      -0.42352371      -2.60027091       0.00000000
Si       0.34808472       2.42198091      -2.64585710       0.00000000
Si       2.05167663       0.62105625      -2.90142987       0.00000000
Si      -0.47685717      -2.36918502      -2.84617242       0.00000000
Si       2.67726150      -2.66488110      -0.03441297       0.00000000
Si      -0.03274290      -2.67910227       2.70001214       0.00000000
