10
Lattice="16.28999089631971 0.0 0.0 0.0 16.28999089631971 0.0 0.0 0.0 34.385447050020396" Properties=species:S:1:pos:R:3:initial_magmoms:R:1 pbc="T T T"
Si      -1.55556372      -1.16817219       1.32798528       0.00000000
Si       1.25554849       1.55310489       1.25732314       0.00000000
Si      -0.99826653       1.56340017      -1.46296753       0.00000000
Si       0.52503647      -1.80577908      -1.51513028       0.00000000
Si      -1.71572700      -1.17498141      -1.81882272       0.00000000
Si       2.44127641       0.09834273       2.66810037       0.00000000
Si      -0.25191719      -2.61744462       2.64779575       0.00000000
Si      -0.26654247       2.82577743       2.63968766       0.00000000
Si       2.96210029       2.49297273      -0.20978921       0.00000000
Si       1.84760366      -0.92802501      -3.35815688       0.00000000
