10
Lattice="16.28999089631971 0.0 0.0 0.0 16.28999089631971 0.0 0.0 0.0 34.385447050020396" Properties=species:S:1:pos:R:3:initial_magmoms:R:1 pbc="T T T"
Si       0.93318894      -1.46517147      -1.49377343       0.00000000
Si       1.07825139       2.03227524      -0.35637097       0.00000000
Si       0.94938120      -0.97134012       1.94645809       0.00000000
Si      -2.12786496       0.38278242      -1.00058268       0.00000000
Si      -0.87148242      -2.96394921      -1.52375755       0.00000000
Si      -2.57326614       2.40673347       0.04181273       0.00000000
Si       0.90989424       1.94732289      -2.79261564       0.00000000
Si       1.00372464      -0.31586310      -3.45907475       0.00000000
Si       3.20044743      -0.19088622       1.89670232       0.00000000
Si       1.09493235      -3.32540802       1.36747561       0.00000000
