10
Lattice="16.28999089631971 0.0 0.0 0.0 16.28999089631971 0.0 0.0 0.0 34.385447050020396" Properties=species:S:1:pos:R:3:initial_magmoms:R:1 pbc="T T T"
Si       1.72542051       0.12136050      -1.52795258       0.00000000
Si       0.74556072       1.83167759       1.25857684       0.00000000
Si      -2.07603018       0.13339881      -1.13080044       0.00000000
Si       0.04616586      -2.08976265       1.12227285       0.00000000
Si      -2.73031803       2.26581261      -0.35492678       0.00000000
Si      -0.79744437       1.78903526       3.04576145       0.00000000
Si       2.70842427      -1.98522972      -1.52867467       0.00000000
Si       1.23184980      -3.46833648      -0.41523889       0.00000000
Si      -3.15428157      -1.89887643      -0.77442947       0.00000000
Si      -2.20490037      -2.87021655       1.17202862       0.00000000
