10
Lattice="16.28999089631971 0.0 0.0 0.0 16.28999089631971 0.0 0.0 0.0 34.385447050020396" Properties=species:S:1:pos:R:3:initial_magmoms:R:1 pbc="T T T"
Si       1.18572792      -1.45476216       1.41077723       0.00000000
Si      -1.25554849      -1.55310489      -1.25732314       0.00000000
Si      -1.52209096       1.27267254       1.38236451       0.00000000
Si       1.70655180       0.93986784      -1.46711235       0.00000000
Si      -2.25381502       0.01029528      -2.72029067       0.00000000
Si       3.17183730      -1.07952201      -1.53337314       0.00000000
Si       2.69234115       2.59346574      -0.03931634       0.00000000
Si       2.54776740      -0.09598068       2.76358743       0.00000000
Si       2.27201028      -3.04368876       0.07379809       0.00000000
Si      -0.16431397       2.60996751       2.76272780       0.00000000
