10
Lattice="16.28999089631971 0.0 0.0 0.0 16.28999089631971 0.0 0.0 0.0 34.385447050020396" Properties=species:S:1:pos:R:3:initial_magmoms:R:1 pbc="T T T"
Si       1.35353075      -1.34823609       1.36001396       0.00000000
Si      -1.33815834      -1.34397291      -1.39171392       0.00000000
Si      -1.35713619       1.36786315       1.35949818       0.00000000
Si       1.37493157       1.36372549      -1.36603142       0.00000000
Si       2.71004742      -2.70469290      -0.00426380       0.00000000
Si      -0.00319284      -2.70806493       2.71758656       0.00000000
Si      -2.71647153      -2.70974280       0.00233821       0.00000000
Si       2.71287374       0.00785504       2.71813672       0.00000000
Si       2.70389632       2.73138502       0.00945600       0.00000000
Si      -2.71783989       0.00742335       2.71803357       0.00000000
