10
Lattice="16.28999089631971 0.0 0.0 0.0 16.28999089631971 0.0 0.0 0.0 34.385447050020396" Properties=species:S:1:pos:R:3:initial_magmoms:R:1 pbc="T T T"
Si       0.82598445      -0.86964328       1.99762366       0.00000000
Si       1.85683194       0.81204021      -1.22639204       0.00000000
Si      -0.80707176      -1.89871825      -1.26786091       0.00000000
Si      -1.79325207       1.87201422       0.17399046       0.00000000
Si       0.56723409       2.14896051      -2.66635221       0.00000000
Si      -2.16091737      -0.57732900      -2.66814025       0.00000000
Si      -3.49140312       0.72220086      -1.16271016       0.00000000
Si      -0.80866818       3.47074740      -1.26284063       0.00000000
Si       2.44940905       0.65226789       2.83944865       0.00000000
Si      -2.57261454      -2.92521878      -0.03053429       0.00000000
