10
Lattice="16.28999089631971 0.0 0.0 0.0 16.28999089631971 0.0 0.0 0.0 34.385447050020396" Properties=species:S:1:pos:R:3:initial_magmoms:R:1 pbc="T T T"
Si      -1.34819298      -1.32594084      -1.36518897       0.00000000
Si      -1.35280305       1.36278882       1.35533754       0.00000000
Si       1.36181142      -1.35184194       1.35915433       0.00000000
Si       1.36512813       1.37393118      -1.37847208       0.00000000
Si       0.07610688      -2.62001844      -2.69017446       0.00000000
Si      -2.42732403       0.25327692      -2.87891629       0.00000000
Si       2.70871816      -2.70163134       0.00512343       0.00000000
Si       0.00250866      -2.70971118       2.71431994       0.00000000
Si      -2.71261080       0.00483813       2.71346030       0.00000000
Si      -2.71422351      -2.71314837      -0.00543290       0.00000000
