10
Lattice="16.28999089631971 0.0 0.0 0.0 16.28999089631971 0.0 0.0 0.0 34.385447050020396" Properties=species:S:1:pos:R:3:initial_magmoms:R:1 pbc="T T T"
Si       1.32253370       1.35698958       1.34766958       0.00000000
Si      -1.34432568      -1.34534223       1.36671913       0.00000000
Si      -1.35597303       1.35658233      -1.35396212       0.00000000
Si       1.35607806      -1.35658233      -1.35409966       0.00000000
Si       2.69035613       0.01518228       2.61487717       0.00000000
Si      -0.14513733       2.58232338       2.73646418       0.00000000
Si      -2.71493370      -0.00019548      -2.71108770       0.00000000
Si       2.71552418      -0.00032580      -2.71053753       0.00000000
Si       0.00060433       2.71469592      -2.71143156       0.00000000
Si       0.00049346      -2.71523349      -2.71101893       0.00000000
