10
Lattice="16.28999089631971 0.0 0.0 0.0 16.28999089631971 0.0 0.0 0.0 34.385447050020396" Properties=species:S:1:pos:R:3:initial_magmoms:R:1 pbc="T T T"
Si      -1.61112987       1.64584386       0.37253214       0.00000000
Si       1.11926702      -0.10650402       2.09080828       0.00000000
Si       1.68451047       1.38670254      -0.98772252       0.00000000
Si      -0.81603126      -1.92533139      -1.18843049       0.00000000
Si       2.10579920      -1.86137685      -1.47376108       0.00000000
Si       2.76241652       1.41947802       1.29365001       0.00000000
Si      -1.71589086       1.87782975       2.70414184       0.00000000
Si      -3.59733699       1.06548003      -0.76225702       0.00000000
Si       0.22327074       1.16628255       3.85409499       0.00000000
Si       0.43114743      -2.49048036      -3.14355371       0.00000000
