10
Lattice="16.28999089631971 0.0 0.0 0.0 16.28999089631971 0.0 0.0 0.0 34.385447050020396" Properties=species:S:1:pos:R:3:initial_magmoms:R:1 pbc="T T T"
Si      -0.45199863       1.08782991      -1.98118741       0.00000000
Si      -1.56792879       0.94066605       1.43624654       0.00000000
Si       2.16334458       0.18582003       0.91303729       0.00000000
Si      -0.55972440      -2.33424297      -0.17402484       0.00000000
Si       0.21079260       3.25703889      -0.97338378       0.00000000
Si      -0.61796115       3.17663145       1.33921075       0.00000000
Si      -3.51349236       0.52387011       0.09645123       0.00000000
Si       3.41052327      -0.37932894      -1.04208594       0.00000000
Si      -2.72350881       0.56518155      -2.29144747       0.00000000
Si       2.49738732      -1.94935914       1.98782380       0.00000000
