10
Lattice="16.28999089631971 0.0 0.0 0.0 16.28999089631971 0.0 0.0 0.0 34.385447050020396" Properties=species:S:1:pos:R:3:initial_magmoms:R:1 pbc="T T T"
Si       0.67081310       1.68362037      -1.54156922       0.00000000
Si      -1.24717869       0.56514897       1.95512323       0.00000000
Si       1.67465177       0.62910351       1.66979263       0.00000000
Si      -0.70151256      -2.38050657      -0.58651290       0.00000000
Si       3.28457618      -0.33262551      -0.00350732       0.00000000
Si       1.67919668       0.03635928      -2.91499352       0.00000000
Si      -0.91313595      -1.57003020       3.02990975       0.00000000
Si       1.46133259      -1.56414951       2.84880149       0.00000000
Si      -3.41052327       0.37932894       1.04208594       0.00000000
Si      -1.83568752      -1.79450640      -2.67216335       0.00000000
