10
Lattice="16.28999089631971 0.0 0.0 0.0 16.28999089631971 0.0 0.0 0.0 34.385447050020396" Properties=species:S:1:pos:R:3:initial_magmoms:R:1 pbc="T T T"
Si       0.72659916      -0.99199584       1.96922127       0.00000000
Si      -0.81526563      -1.85147253      -1.16442943       0.00000000
Si       1.91819637       0.97021611      -1.00023883       0.00000000
Si      -1.85694597       1.66042341       0.17371538       0.00000000
Si      -2.18308806      -0.50966523      -2.43163702       0.00000000
Si       0.57052467       2.20850046      -2.44439403       0.00000000
Si      -0.25156647       1.29143862       3.08520158       0.00000000
Si      -0.86959278       3.43189575      -1.13004396       0.00000000
Si      -3.65075909       0.71566857      -1.04284242       0.00000000
Si       2.74242150       2.69770545       0.43989327       0.00000000
