10
Lattice="16.28999089631971 0.0 0.0 0.0 16.28999089631971 0.0 0.0 0.0 34.385447050020396" Properties=species:S:1:pos:R:3:initial_magmoms:R:1 pbc="T T T"
Si      -1.72297701      -1.25214714      -1.07189814       0.00000000
Si       1.29296729       1.12500369      -1.67295609       0.00000000
Si      -1.71877419       1.22609943       1.24076516       0.00000000
Si       0.84024376      -1.67751162       1.61501658       0.00000000
Si      -0.56014794       2.17000719      -2.76455710       0.00000000
Si      -0.72537741      -2.44040490      -2.80000852       0.00000000
Si       0.73391241      -3.69967077       0.42937132       0.00000000
Si      -0.49199058       2.77110819       2.56274880       0.00000000
Si       3.05980676       2.27501253      -0.45240958       0.00000000
Si       3.05713520      -0.95535963       2.12605338       0.00000000
