10
Lattice="16.28999089631971 0.0 0.0 0.0 16.28999089631971 0.0 0.0 0.0 34.385447050020396" Properties=species:S:1:pos:R:3:initial_magmoms:R:1 pbc="T T T"
Si      -1.35731538      -1.35565380      -1.35767575       0.00000000
Si      -1.35791811       1.35702216       1.35636910       0.00000000
Si       1.35863487       1.35645201      -1.35695366       0.00000000
Si       1.35738054      -1.35889551       1.35643787       0.00000000
Si       2.70858717       0.00729792      -2.71480133       0.00000000
Si      -2.71353933      -0.00340461      -2.71325399       0.00000000
Si       2.71454931       2.71316466      -0.00120349       0.00000000
Si       0.00127062       2.71148679      -2.71645184       0.00000000
Si      -0.00042354       2.71425609       2.71373538       0.00000000
Si      -2.71472850       2.71414206      -0.00120349       0.00000000
