10
Lattice="16.28999089631971 0.0 0.0 0.0 16.28999089631971 0.0 0.0 0.0 34.385447050020396" Properties=species:S:1:pos:R:3:initial_magmoms:R:1 pbc="T T T"
Si      -1.36782243       1.34180730      -1.26720759       0.00000000
Si       1.39893633      -1.36622601      -1.25084011       0.00000000
Si      -0.94009590      -1.69173279       1.29660716       0.00000000
Si       0.81526563       1.85147253       1.16442943       0.00000000
Si       1.54186479       0.85947669       3.13365070       0.00000000
Si       2.66095521      -2.60651403       0.36307614       0.00000000
Si      -2.69035613      -0.01518228      -2.61487717       0.00000000
Si       0.02663415       2.70252729      -2.61054460       0.00000000
Si       0.02463048      -2.73036690      -2.60724359       0.00000000
Si       2.74051557      -0.01826109      -2.60803446       0.00000000
