10
Lattice="16.28999089631971 0.0 0.0 0.0 16.28999089631971 0.0 0.0 0.0 34.385447050020396" Properties=species:S:1:pos:R:3:initial_magmoms:R:1 pbc="T T T"
Si       1.51431840      -1.43829297      -1.08609934       0.00000000
Si      -0.61019082       1.94600340      -1.23024321       0.00000000
Si      -1.82170744      -1.44322884       0.56605355       0.00000000
Si       1.49695326       0.68892039       1.81476175       0.00000000
Si       1.62430848       2.55767661      -1.63994604       0.00000000
Si       2.82828609       2.06498556       0.38515161       0.00000000
Si      -0.23605839       1.87455546       3.02024743       0.00000000
Si      -0.20658978      -2.47059027      -2.59919740       0.00000000
Si       2.26199682      -2.71746522       0.72687437       0.00000000
Si      -1.28055364      -3.36295647      -0.64806288       0.00000000
