10
Lattice="16.28999089631971 0.0 0.0 0.0 16.28999089631971 0.0 0.0 0.0 34.385447050020396" Properties=species:S:1:pos:R:3:initial_magmoms:R:1 pbc="T T T"
Si       1.74774107      -0.77250438       1.45695691       0.00000000
Si       0.58176640       0.54247329      -2.42532182       0.00000000
Si      -0.97406448       1.93161933       1.44008052       0.00000000
Si      -2.01207957      -1.72869480       0.11675929       0.00000000
Si       0.39186735      -2.12055075       2.84828915       0.00000000
Si      -2.33537091       0.61126596       2.84605410       0.00000000
Si       1.41456170       2.75568156      -2.17052552       0.00000000
Si      -0.96590964      -3.45784572       1.46792587       0.00000000
Si       3.24852248      -2.13705252       0.04624501       0.00000000
Si      -1.67349192       0.66663567      -3.47758586       0.00000000
