10
Lattice="16.28999089631971 0.0 0.0 0.0 16.28999089631971 0.0 0.0 0.0 34.385447050020396" Properties=species:S:1:pos:R:3:initial_magmoms:R:1 pbc="T T T"
Si      -1.35425120       1.35084825       1.35640349       0.00000000
Si       1.35725022       1.35633798      -1.35681611       0.00000000
Si       1.35868374      -1.35571896       1.35850100       0.00000000
Si      -1.35770221      -1.35873261      -1.35726312       0.00000000
Si       2.71783989       0.00172674       2.68908100       0.00000000
Si       0.00512321       2.70790299       2.70022189       0.00000000
Si      -2.70287657       0.00097740       2.70816494       0.00000000
Si      -0.03577284      -2.71643895       2.70183801       0.00000000
Si       2.71484253       2.71313208       0.00044701       0.00000000
Si      -2.71528955       2.71298547       0.00158173       0.00000000
