10
Lattice="16.28999089631971 0.0 0.0 0.0 16.28999089631971 0.0 0.0 0.0 34.385447050020396" Properties=species:S:1:pos:R:3:initial_magmoms:R:1 pbc="T T T"
Si       1.35915615       1.35744570       1.33058000       0.00000000
Si      -1.35868374       1.35571896      -1.35850100       0.00000000
Si       1.35540945      -1.36045935      -1.35808838       0.00000000
Si      -1.39445658      -1.36071999       1.34333701       0.00000000
Si      -0.08096130       2.58084099       2.64493007       0.00000000
Si      -0.02663415      -2.70252729       2.61054460       0.00000000
Si      -2.71293494       2.70656721      -0.00209751       0.00000000
Si       2.71257822       2.71236645      -0.00288838       0.00000000
Si      -0.00143352       2.71205694      -2.71531711       0.00000000
Si       2.71326240      -0.00255753      -2.71517957       0.00000000
