10
Lattice="16.28999089631971 0.0 0.0 0.0 16.28999089631971 0.0 0.0 0.0 34.385447050020396" Properties=species:S:1:pos:R:3:initial_magmoms:R:1 pbc="T T T"
Si       0.27075609       0.12228903       2.22683718       0.00000000
Si       0.34831278       2.22951456      -0.40874004       0.00000000
Si       1.68389730      -0.27596889      -1.68330612       0.00000000
Si      -2.06566974      -1.18346850      -0.39264764       0.00000000
Si      -0.06993297      -1.05925725      -3.06983127       0.00000000
Si       0.54809334      -3.19971438       1.14541427       0.00000000
Si      -1.05728616      -2.83072959      -1.76607193       0.00000000
Si       2.26162215      -0.67642596       2.88844794       0.00000000
Si      -1.36627977       3.01309614      -1.76198006       0.00000000
Si      -1.06183107      -2.23798536       2.81871421       0.00000000
