10
Lattice="16.28999089631971 0.0 0.0 0.0 16.28999089631971 0.0 0.0 0.0 34.385447050020396" Properties=species:S:1:pos:R:3:initial_magmoms:R:1 pbc="T T T"
Si      -1.60992441       0.96172902       1.67329994       0.00000000
Si       2.42445699       1.02851802      -0.11140891       0.00000000
Si       0.97816563      -2.28343446      -1.11598031       0.00000000
Si      -3.28457618       0.33262551       0.00350732       0.00000000
Si      -1.60537950       0.36898479      -2.91148620       0.00000000
Si       0.25156647      -1.29143862      -3.08520158       0.00000000
Si      -0.54809334       3.19971438      -1.14541427       0.00000000
Si      -0.27733725       3.32200341       1.08142291       0.00000000
Si       1.71352881       2.52328842       1.74303367       0.00000000
Si       3.22178733      -0.94323987       1.05446471       0.00000000
