10
Lattice="16.28999089631971 0.0 0.0 0.0 16.28999089631971 0.0 0.0 0.0 34.385447050020396" Properties=species:S:1:pos:R:3:initial_magmoms:R:1 pbc="T T T"
Si       1.23507522       0.16376337       2.00848947       0.00000000
Si       0.93973752       0.37908459      -2.18512761       0.00000000
Si      -1.23336477      -2.02562892       0.45873651       0.00000000
Si      -1.63778031       1.78419483       0.00546729       0.00000000
Si      -2.28678368      -1.17851634       2.41372219       0.00000000
Si       2.50830162      -1.79450640       1.77845070       0.00000000
Si      -1.06916157       1.01706615      -3.32493705       0.00000000
Si      -0.51994422      -0.02850750       3.63426870       0.00000000
Si      -2.71231106      -0.50891589      -2.52777878       0.00000000
Si      -3.60830735       0.76387068      -0.76449207       0.00000000
