10
Lattice="16.28999089631971 0.0 0.0 0.0 16.28999089631971 0.0 0.0 0.0 34.385447050020396" Properties=species:S:1:pos:R:3:initial_magmoms:R:1 pbc="T T T"
Si      -0.28346229      -2.38830948       0.21855402       0.00000000
Si       2.33030079      -0.14112027       0.63080138       0.00000000
Si      -0.28079073       0.84206268      -2.35990894       0.00000000
Si      -1.57732975       1.21399596       1.70751348       0.00000000
Si      -1.22702796       2.98424655      -1.99879277       0.00000000
Si       1.42690626      -3.43231929      -1.20311308       0.00000000
Si       3.51679923       1.77393213      -0.13609768       0.00000000
Si       3.33102807      -2.08383309      -0.55432810       0.00000000
Si       0.18096561       3.97016622      -0.26363337       0.00000000
Si      -2.50035373      -3.11046147      -0.29248278       0.00000000
