10
Lattice="16.28999089631971 0.0 0.0 0.0 16.28999089631971 0.0 0.0 0.0 34.385447050020396" Properties=species:S:1:pos:R:3:initial_magmoms:R:1 pbc="T T T"
Si      -1.35357682      -1.36596537       1.34323385       0.00000000
Si      -1.36093828       1.35327546      -1.35605963       0.00000000
Si       1.35614250      -1.36073628      -1.35654103       0.00000000
Si       1.34651511       1.35395964       1.38088594       0.00000000
Si       2.55884949      -0.16255791       2.79698260       0.00000000
Si      -2.74042502      -0.10568952       2.67697732       0.00000000
Si      -0.00154755       2.71257826      -2.71359784       0.00000000
Si       2.71350675      -0.00249237      -2.71394170       0.00000000
Si       2.71696023       2.71249798       0.00852760       0.00000000
Si       2.71256193      -2.71722087      -0.00137542       0.00000000
