10
Lattice="16.28999089631971 0.0 0.0 0.0 16.28999089631971 0.0 0.0 0.0 34.385447050020396" Properties=species:S:1:pos:R:3:initial_magmoms:R:1 pbc="T T T"
Si      -1.38684819       1.26027585       1.33374347       0.00000000
Si      -1.35937440      -1.35705474      -1.34381841       0.00000000
Si       1.35357682       1.36596537      -1.34323385       0.00000000
Si       1.27259923      -1.48278096       1.30320917       0.00000000
Si      -2.34127929      -0.25567155       2.81224974       0.00000000
Si      -0.02374756       2.58957243       2.61106038       0.00000000
Si      -0.00512321      -2.70790299      -2.70022189       0.00000000
Si       2.70971933       0.00522909      -2.69977488       0.00000000
Si      -2.70799977      -2.70692559       0.00794304       0.00000000
Si      -0.00736145       2.71924083      -2.69929349       0.00000000
