10
Lattice="16.28999089631971 0.0 0.0 0.0 16.28999089631971 0.0 0.0 0.0 34.385447050020396" Properties=species:S:1:pos:R:3:initial_magmoms:R:1 pbc="T T T"
Si       1.35703845      -1.35874401      -1.36049536       0.00000000
Si      -1.35890854       1.35860229      -1.36173324       0.00000000
Si      -1.38832828      -1.34899771       1.35526877       0.00000000
Si       1.37430585       1.36414089       1.35640349       0.00000000
Si      -0.02463048       2.73036690       2.60724359       0.00000000
Si      -0.09989028      -2.69868803       2.72387910       0.00000000
Si      -2.71353023      -2.71282918      -0.00519221       0.00000000
Si       2.71588509       2.71210581      -0.00079087       0.00000000
Si      -2.71498661       2.71518462      -0.00763357       0.00000000
Si       0.00053757       2.71485882      -2.71817111       0.00000000
