10
Lattice="16.28999089631971 0.0 0.0 0.0 16.28999089631971 0.0 0.0 0.0 34.385447050020396" Properties=species:S:1:pos:R:3:initial_magmoms:R:1 pbc="T T T"
Si      -0.40707081      -0.42924150       2.20321437       0.00000000
Si       0.80298297      -1.52770878      -1.51615836       0.00000000
Si       0.34865487       2.23986264      -0.48541963       0.00000000
Si      -2.20333197      -0.25694217      -0.93249946       0.00000000
Si      -0.91160958      -0.74412720      -2.86939839       0.00000000
Si       1.62934209       0.33427080       3.22219327       0.00000000
Si      -1.02844960      -2.74712931       2.19733445       0.00000000
Si      -1.71344247       3.33292490       0.04600775       0.00000000
Si      -2.06882837       1.04915812       3.02155408       0.00000000
Si       0.72542628      -3.63493431       1.11941885       0.00000000
