10
Lattice="16.28999089631971 0.0 0.0 0.0 16.28999089631971 0.0 0.0 0.0 34.385447050020396" Properties=species:S:1:pos:R:3:initial_magmoms:R:1 pbc="T T T"
Si       0.14734305       1.18913742      -1.99126235       0.00000000
Si      -1.97052704      -1.02032415      -0.76995936       0.00000000
Si      -0.11638390       1.46357505       1.86596171       0.00000000
Si       1.63778031      -1.78419483      -0.00546729       0.00000000
Si      -2.50211861      -1.91770767       1.31665389       0.00000000
Si       0.56861874      -0.76712868      -3.33040434       0.00000000
Si      -1.07453075      -2.29311072      -2.53324607       0.00000000
Si       2.57751783      -1.40511024      -2.19059490       0.00000000
Si       1.36906047       3.20796431       1.28587890       0.00000000
Si       0.40441554      -3.80982375       0.45326922       0.00000000
