10
Lattice="10.86 0.0 0.0 0.0 10.86 0.0 0.0 0.0 10.86" Properties=species:S:1:pos:R:3:initial_magmoms:R:1 pbc="T T T"
Si       1.21178052       1.22887416       1.42118304       0.00000000
Si       1.21178052      -1.48612584      -1.29381696       0.00000000
Si      -1.50321948      -1.48612584       1.42118304       0.00000000
Si      -0.45678246       2.32596222      -2.76297948       0.00000000
Si       2.56928052       2.58637416       0.06368304       0.00000000
Si       2.56928052      -0.12862584      -2.65131696       0.00000000
Si      -0.34984404       2.64550686       2.59126116       0.00000000
Si       2.56928052      -0.12862584       2.77868304       0.00000000
Si      -2.94846828      -0.01916790      -2.41434090       0.00000000
Si       2.56928052      -2.84362584       0.06368304       0.00000000
