10
Lattice="10.86 0.0 0.0 0.0 10.86 0.0 0.0 0.0 10.86" Properties=species:S:1:pos:R:3:initial_magmoms:R:1 pbc="T T T"
Si      -1.75852722       1.21077054       0.88595880       0.00000000
Si      -1.49098026      -1.35350352      -1.52641644       0.00000000
Si       1.07366304       1.31283282      -1.93315602       0.00000000
Si       0.21417006      -2.49707238       2.37168282       0.00000000
Si      -0.25592676       2.59786404       2.36370072       0.00000000
Si       2.45907324       2.59786404      -0.35129928       0.00000000
Si      -2.97092676      -0.11713596       2.36370072       0.00000000
Si       2.45907324      -0.11713596      -3.06629928       0.00000000
Si      -2.97092676       2.59786404      -0.35129928       0.00000000
Si       1.11412740       1.13927916       3.69035832       0.00000000
