10
Lattice="10.86 0.0 0.0 0.0 10.86 0.0 0.0 0.0 10.86" Properties=species:S:1:pos:R:3:initial_magmoms:R:1 pbc="T T T"
Si      -1.21239954       1.38709350      -1.23725808       0.00000000
Si       1.75852722      -1.21077054      -0.88595880       0.00000000
Si      -1.21239954      -1.32790650       1.47774192       0.00000000
Si       1.50260046       1.38709350       1.47774192       0.00000000
Si       0.26754696      -2.56427406      -2.41237524       0.00000000
Si      -2.56989954       0.02959350      -2.59475808       0.00000000
Si      -2.56989954      -2.68540650       0.12024192       0.00000000
Si      -2.56989954       2.74459350       0.12024192       0.00000000
Si       0.14510046       2.74459350      -2.59475808       0.00000000
Si      -2.56989954       0.02959350       2.83524192       0.00000000
