10
Lattice="16.28999089631971 0.0 0.0 0.0 16.28999089631971 0.0 0.0 0.0 34.2284985734139" Properties=species:S:1:pos:R:3:initial_magmoms:R:1 pbc="T T T"
Si      -1.35661817      -1.34933740       1.39554116       0.00000000
Si       1.36283769       1.36323986       1.39324785       0.00000000
Si       1.40413284      -1.44293974      -1.44466936       0.00000000
Si      -1.38985791       1.36854551      -1.54567429       0.00000000
Si      -2.68761379       2.71368900       0.03305790       0.00000000
Si      -2.70434540      -2.71266379       0.01059373       0.00000000
Si       2.70956457       2.72155707       0.00610637       0.00000000
Si       2.71065600      -2.72447404       0.04178960       0.00000000
Si       0.00374670      -2.71140946       2.75612474       0.00000000
Si      -2.71213083       0.00570254       2.75646703       0.00000000
