10
Lattice="16.28999089631971 0.0 0.0 0.0 16.28999089631971 0.0 0.0 0.0 34.2284985734139" Properties=species:S:1:pos:R:3:initial_magmoms:R:1 pbc="T T T"
Si      -1.87752024      -0.74657626      -1.14788757       0.00000000
Si      -1.31857776       0.21020453       1.91782385       0.00000000
Si       0.83261448       1.97029342      -1.14449895       0.00000000
Si       1.63488069      -1.84497838       0.16919156       0.00000000
Si      -0.48957966      -2.04423766      -2.49638848       0.00000000
Si      -1.48631589      -2.11632091       2.20106483       0.00000000
Si       2.25160380       0.69353372      -2.49074078       0.00000000
Si       3.47566698      -0.79024975      -1.06152902       0.00000000
Si       0.72242892      -3.56080408      -1.08093659       0.00000000
Si       1.11320973      -2.68348984       2.48680450       0.00000000
