10
Lattice="16.28999089631971 0.0 0.0 0.0 16.28999089631971 0.0 0.0 0.0 34.2284985734139" Properties=species:S:1:pos:R:3:initial_magmoms:R:1 pbc="T T T"
Si      -1.21961601      -1.29816476       1.58327230       0.00000000
Si      -1.45640745       1.54448748      -1.14720300       0.00000000
Si       1.36925595       1.34079732       1.57909984       0.00000000
Si       0.74083662      -1.11067501      -2.09964573       0.00000000
Si      -0.10891494       2.42432667      -2.86855515       0.00000000
Si      -2.06923725      -3.14550845       0.36847996       0.00000000
Si       2.93578380       2.52913653       0.32344793       0.00000000
Si      -2.47728546       2.96621352       0.46545996       0.00000000
Si       0.09743049      -2.59936287       3.02505277       0.00000000
Si      -2.64370410       0.12057858       2.99559571       0.00000000
