10
Lattice="16.28999089631971 0.0 0.0 0.0 16.28999089631971 0.0 0.0 0.0 34.2284985734139" Properties=species:S:1:pos:R:3:initial_magmoms:R:1 pbc="T T T"
Si      -1.14294617      -1.39628106      -1.65053335       0.00000000
Si      -1.08735962       1.58754195       1.64177085       0.00000000
Si       0.18231931      -1.93363929       1.62869556       0.00000000
Si       1.62888597       1.22189661      -1.53542285       0.00000000
Si      -1.71378035      -3.46760506      -0.34023147       0.00000000
Si      -3.52413692       1.37433843       1.24054417       0.00000000
Si       2.12703417      -3.18321587       1.18639465       0.00000000
Si       3.06634815       0.80187525       2.48461387       0.00000000
Si      -2.48292899       0.02103039      -3.18136958       0.00000000
Si      -0.03926053       3.88143459       1.36807962       0.00000000
