10
Lattice="16.28999089631971 0.0 0.0 0.0 16.28999089631971 0.0 0.0 0.0 34.2284985734139" Properties=species:S:1:pos:R:3:initial_magmoms:R:1 pbc="T T T"
Si       1.34749251       0.87983919      -1.72135216       0.00000000
Si      -1.02087801       1.42172604       1.61266296       0.00000000
Si      -1.98353556      -0.56027826      -1.25204495       0.00000000
Si       1.45640745      -1.54448748       1.14720300       0.00000000
Si      -0.65630781      -0.01759320      -3.10935278       0.00000000
Si       2.19724407      -2.65516249      -0.95244273       0.00000000
Si      -1.95383889       3.07087677       0.26643478       0.00000000
Si       2.98170531       2.10639474      -0.03891782       0.00000000
Si      -2.57204439       0.00386073       2.67855406       0.00000000
Si      -3.19104810       1.60764381      -1.28213182       0.00000000
