10
Lattice="16.28999089631971 0.0 0.0 0.0 16.28999089631971 0.0 0.0 0.0 34.2284985734139" Properties=species:S:1:pos:R:3:initial_magmoms:R:1 pbc="T T T"
Si       1.34457660       1.35073422       1.36103197       0.00000000
Si      -1.28340765       1.42902396      -1.35938558       0.00000000
Si      -1.36778985      -1.36298430       1.36027894       0.00000000
Si       1.55334924      -1.22930856      -1.30892248       0.00000000
Si       0.14643081      -2.58685200      -2.56083188       0.00000000
Si      -2.58061293      -0.04448799      -2.69565835       0.00000000
Si       0.30740859       2.49601896      -2.87842464       0.00000000
Si       2.70314631      -0.00446346       2.71986990       0.00000000
Si       2.74343148       2.68574859      -0.00482964       0.00000000
Si      -0.01096317       2.71383255       2.72004104       0.00000000
