10
Lattice="16.28999089631971 0.0 0.0 0.0 16.28999089631971 0.0 0.0 0.0 34.2284985734139" Properties=species:S:1:pos:R:3:initial_magmoms:R:1 pbc="T T T"
Si       0.53431200      -2.26181763      -0.48186907       0.00000000
Si       1.81411956       1.57884309      -0.15135851       0.00000000
Si      -1.35550719       0.41010075      -2.02020134       0.00000000
Si      -2.55484215      -0.47332224      -0.14872291       0.00000000
Si      -1.08794394      -0.40220010       2.34763134       0.00000000
Si      -1.23787710       2.69226459      -1.67490406       0.00000000
Si       3.01286808       0.24752655      -1.71104937       0.00000000
Si       2.79919215      -1.93921047      -0.91564708       0.00000000
Si      -0.46929861      -2.72313414      -2.51641216       0.00000000
Si      -2.06558829       3.13665579       0.53228768       0.00000000
