10
Lattice="16.28999089631971 0.0 0.0 0.0 16.28999089631971 0.0 0.0 0.0 34.2284985734139" Properties=species:S:1:pos:R:3:initial_magmoms:R:1 pbc="T T T"
Si      -1.34943102      -1.34237745       1.36176104       0.00000000
Si       1.35081567      -1.43669655      -1.28692039       0.00000000
Si      -1.30652316       1.28153430      -1.48645895       0.00000000
Si       1.36594908       1.37178090       1.35474419       0.00000000
Si       2.12242410       0.33058926      -2.55959863       0.00000000
Si       0.57337542       2.17994409      -2.66279898       0.00000000
Si      -2.69707014      -2.69061930      -0.00149921       0.00000000
Si       0.00793323      -2.69764029       2.71505394       0.00000000
Si      -2.70690930       0.01306458       2.71433515       0.00000000
Si      -2.71065600       2.72447404      -0.04178960       0.00000000
