10
Lattice="16.28999089631971 0.0 0.0 0.0 16.28999089631971 0.0 0.0 0.0 34.2284985734139" Properties=species:S:1:pos:R:3:initial_magmoms:R:1 pbc="T T T"
Si       0.91245177       1.71582570       1.25012815       0.00000000
Si       1.50641775      -1.16515854      -1.40545717       0.00000000
Si      -1.21200858       1.51656642      -1.41545189       0.00000000
Si      -0.80267346      -1.76902884       1.51293471       0.00000000
Si       0.39078081       0.87731424       3.56774109       0.00000000
Si       2.74268214      -2.55508650       0.02854658       0.00000000
Si       0.15457581      -2.52897363      -2.76761526       0.00000000
Si      -2.63814921      -2.68208334       0.14622423       0.00000000
Si      -2.56189572       0.18723726      -2.77189382       0.00000000
Si      -0.72242892       3.56080408       1.08093659       0.00000000
