10
Lattice="16.28999089631971 0.0 0.0 0.0 16.28999089631971 0.0 0.0 0.0 34.2284985734139" Properties=species:S:1:pos:R:3:initial_magmoms:R:1 pbc="T T T"
Si      -0.91245177      -1.71582570      -1.25012815       0.00000000
Si       1.84078629       1.05472863      -1.23072058       0.00000000
Si      -1.63488069       1.84497838      -0.16919156       0.00000000
Si      -0.52167096      -0.83851146       2.31761293       0.00000000
Si       0.17671392       1.21594752       3.16045595       0.00000000
Si      -2.12446035      -0.19925928      -2.66558004       0.00000000
Si       0.61672311       2.53851210      -2.65993234       0.00000000
Si      -3.12119658      -0.27134253       2.03187327       0.00000000
Si      -1.71512523      -3.48485454       0.26280656       0.00000000
Si      -3.51240093       1.09840212      -1.31707913       0.00000000
