10
Lattice="16.28999089631971 0.0 0.0 0.0 16.28999089631971 0.0 0.0 0.0 34.2284985734139" Properties=species:S:1:pos:R:3:initial_magmoms:R:1 pbc="T T T"
Si       2.27835198      -0.38283129      -0.24179025       0.00000000
Si       0.00312768       1.86705296       1.42376942       0.00000000
Si      -0.06462243       0.22673727      -2.33633593       0.00000000
Si      -1.01532312      -2.05890939       0.61166361       0.00000000
Si      -1.93901499       1.51797618      -1.87469591       0.00000000
Si       0.04041549      -3.19595139      -1.13395656       0.00000000
Si       2.19841695      -2.69231346      -0.37213244       0.00000000
Si       0.76183443       3.50144495      -0.08909683       0.00000000
Si       3.09873267      -0.28908234       1.91193654       0.00000000
Si       1.75980870       1.29542708       2.93714910       0.00000000
