10
Lattice="16.28999089631971 0.0 0.0 0.0 16.28999089631971 0.0 0.0 0.0 34.2284985734139" Properties=species:S:1:pos:R:3:initial_magmoms:R:1 pbc="T T T"
Si      -1.22386607       1.61137422      -1.32525975       0.00000000
Si       1.31391882       1.33200072       1.59672753       0.00000000
Si      -1.40075592      -1.44878047       1.50919152       0.00000000
Si       1.90242765       0.76786173      -2.33387148       0.00000000
Si       1.04402610      -1.43493560      -2.57768121       0.00000000
Si      -2.74967774       2.65157217       0.24055802       0.00000000
Si       0.69491511       2.93578380      -2.36395835       0.00000000
Si       2.86508520       2.74986603       0.53083643       0.00000000
Si      -0.01943397       2.61961119       3.08244030       0.00000000
Si      -1.95952899       0.80117478      -3.48730407       0.00000000
