10
Lattice="16.28999089631971 0.0 0.0 0.0 16.28999089631971 0.0 0.0 0.0 34.2284985734139" Properties=species:S:1:pos:R:3:initial_magmoms:R:1 pbc="T T T"
Si      -1.14346026      -1.90786199      -0.50726663       0.00000000
Si       1.65302775       0.15858315       1.64173662       0.00000000
Si      -1.77964992       1.21293711       0.90366710       0.00000000
Si       0.93563244       0.76678659      -2.01171267       0.00000000
Si       2.29662936       2.26561320       0.89223477       0.00000000
Si      -1.73700270       3.08045529      -0.50291961       0.00000000
Si      -1.14596892       1.46526921       3.15898413       0.00000000
Si      -2.02334832      -2.70021248       1.47945922       0.00000000
Si       3.13496163      -0.05168817      -1.94585700       0.00000000
Si       0.36285975       3.05619948      -2.04761839       0.00000000
