10
Lattice="16.28999089631971 0.0 0.0 0.0 16.28999089631971 0.0 0.0 0.0 34.2284985734139" Properties=species:S:1:pos:R:3:initial_magmoms:R:1 pbc="T T T"
Si       0.85840155       2.20279733       0.24380973       0.00000000
Si      -1.97718246       0.13549533      -1.37424076       0.00000000
Si       1.15509132      -1.61473878      -1.40655248       0.00000000
Si      -1.04402610       1.43493560       2.57768121       0.00000000
Si      -3.04144400      -1.87987482      -0.68843818       0.00000000
Si       3.43502343      -1.50952167      -0.67457563       0.00000000
Si       0.12569364      -3.71113146      -0.92567603       0.00000000
Si      -3.00355509       2.23611038      -0.90962286       0.00000000
Si       2.18562930       2.74548239      -1.61349810       0.00000000
Si      -1.76555907      -3.49923114       0.63202958       0.00000000
