10
Lattice="16.28999089631971 0.0 0.0 0.0 16.28999089631971 0.0 0.0 0.0 34.2284985734139" Properties=species:S:1:pos:R:3:initial_magmoms:R:1 pbc="T T T"
Si       1.31681844      -2.01965116       0.13287511       0.00000000
Si      -0.74083662       1.11067501       2.09964573       0.00000000
Si      -1.60415775      -1.61743477      -1.21798757       0.00000000
Si       1.43446482       0.96945700      -2.36590937       0.00000000
Si      -0.36315297      -0.48916589      -2.93615648       0.00000000
Si      -2.19724407       2.65516249       0.95244273       0.00000000
Si      -0.32501808      -3.53856334      -0.78910425       0.00000000
Si      -0.84975156       3.53500168      -0.76890942       0.00000000
Si       2.35092393      -1.94136142       2.39452441       0.00000000
Si       3.33400914      -0.44155348      -2.45661494       0.00000000
