10
Lattice="16.28999089631971 0.0 0.0 0.0 16.28999089631971 0.0 0.0 0.0 34.2284985734139" Properties=species:S:1:pos:R:3:initial_magmoms:R:1 pbc="T T T"
Si       1.55116638       1.41786531      -1.06589110       0.00000000
Si      -1.33335279       1.28761047       1.48571277       0.00000000
Si      -1.31391882      -1.33200072      -1.59672753       0.00000000
Si       1.38474774      -1.42776963       1.46424464       0.00000000
Si       2.57204439      -0.00386073      -2.67855406       0.00000000
Si      -2.72388674       2.61307890       0.07522059       0.00000000
Si      -2.53778489       0.27937350      -2.92198728       0.00000000
Si      -2.71467474      -2.78078119      -0.08753601       0.00000000
Si       0.03694572       2.64173301       2.85521972       0.00000000
Si      -2.67692918      -0.07423353       2.85744458       0.00000000
