10
Lattice="16.28999089631971 0.0 0.0 0.0 16.28999089631971 0.0 0.0 0.0 34.2284985734139" Properties=species:S:1:pos:R:3:initial_magmoms:R:1 pbc="T T T"
Si      -1.06932447       2.10356028       0.26424416       0.00000000
Si      -0.79359993      -1.58216625       1.63116001       0.00000000
Si       2.31487416       0.47131857       0.55481004       0.00000000
Si      -2.69674434      -0.86586237      -1.30023870       0.00000000
Si       1.24512615       0.03546333      -3.14977666       0.00000000
Si       0.16869924       3.07766970       1.99737092       0.00000000
Si       0.00057015      -0.73096488       3.64153777       0.00000000
Si      -0.30765294      -3.70351847       0.65160829       0.00000000
Si      -1.82487096      -3.14259187      -1.08312721       0.00000000
Si       3.22887348      -1.45981206       1.56400366       0.00000000
