10
Lattice="16.28999089631971 0.0 0.0 0.0 16.28999089631971 0.0 0.0 0.0 34.2284985734139" Properties=species:S:1:pos:R:3:initial_magmoms:R:1 pbc="T T T"
Si      -1.64682126      -1.04029569       1.28654729       0.00000000
Si      -0.79239447      -0.02493999      -2.21311327       0.00000000
Si       1.87369209      -1.58472378       0.30692712       0.00000000
Si      -0.23633532      -2.16204138       2.79611605       0.00000000
Si      -3.05727462      -0.34754715      -1.77933526       0.00000000
Si       0.61827066      -1.56968811      -3.24794404       0.00000000
Si       2.03605452       1.22852664       2.85006495       0.00000000
Si      -0.57871854       2.16179703      -3.00851556       0.00000000
Si       2.60843625      -1.89174141      -1.92223933       0.00000000
Si       1.40141241       2.98455606      -1.87271066       0.00000000
