10
Lattice="16.28999089631971 0.0 0.0 0.0 16.28999089631971 0.0 0.0 0.0 34.2284985734139" Properties=species:S:1:pos:R:3:initial_magmoms:R:1 pbc="T T T"
Si      -1.72090818       0.84119931      -1.41411698       0.00000000
Si      -1.28386377      -1.03829202       1.72575535       0.00000000
Si       1.27881387       1.53528363       1.36624981       0.00000000
Si       1.31180112      -1.71116676      -1.17773484       0.00000000
Si      -2.69078220      -2.39583546       0.47384595       0.00000000
Si      -2.52980442       2.68703550       0.15625318       0.00000000
Si      -3.62374308      -0.74668473      -0.87238223       0.00000000
Si       2.95862238      -0.67087107      -2.46428213       0.00000000
Si       3.16252431       2.33611632       0.01129541       0.00000000
Si       2.72228706      -2.83291245       0.33183391       0.00000000
