10
Lattice="16.28999089631971 0.0 0.0 0.0 16.28999089631971 0.0 0.0 0.0 34.2284985734139" Properties=species:S:1:pos:R:3:initial_magmoms:R:1 pbc="T T T"
Si       1.34265438       1.33988508       1.36544403       0.00000000
Si       1.35233064      -1.36197432      -1.35702381       0.00000000
Si      -1.36101321       1.35413883      -1.35630501       0.00000000
Si      -1.37961639      -1.35066906       1.36955145       0.00000000
Si      -0.14297733       2.51719596       2.78318923       0.00000000
Si      -0.01076769      -2.77047288       2.62399240       0.00000000
Si       2.64290589      -0.06625143       2.77155154       0.00000000
Si       2.71104696      -2.71414206      -0.00085571       0.00000000
Si       2.71267596      -0.00206883      -2.71336306       0.00000000
Si      -0.00213399       2.71362078      -2.71308923       0.00000000
