10
Lattice="16.28999089631971 0.0 0.0 0.0 16.28999089631971 0.0 0.0 0.0 34.2284985734139" Properties=species:S:1:pos:R:3:initial_magmoms:R:1 pbc="T T T"
Si       1.35551266      -1.35503994      -1.36092586       0.00000000
Si      -1.35746044      -1.35717393       1.35726341       0.00000000
Si       1.35771507       1.35762203       1.35722918       0.00000000
Si      -1.35848671       1.35658598      -1.36058358       0.00000000
Si      -2.71471066       2.71352506      -0.00041074       0.00000000
Si       0.00109109       2.71438843       2.71421877       0.00000000
Si      -2.71417309      -2.71478253      -0.00112954       0.00000000
Si      -2.71435228      -0.00038584       2.71469797       0.00000000
Si       0.00038733      -2.71492914       2.71452682       0.00000000
Si       2.71514448      -0.00029485       2.71452682       0.00000000
