10
Lattice="16.28999089631971 0.0 0.0 0.0 16.28999089631971 0.0 0.0 0.0 34.2284985734139" Properties=species:S:1:pos:R:3:initial_magmoms:R:1 pbc="T T T"
Si       0.07993503       2.30948217       0.13034220       0.00000000
Si       1.90539243      -0.66129255      -1.15613664       0.00000000
Si      -2.15800146      -0.50363793      -0.76182412       0.00000000
Si      -0.08456139       0.27083754       2.36039858       0.00000000
Si      -3.21374007       0.63340407       0.98379606       0.00000000
Si       0.90031572       2.40323112       2.28406899       0.00000000
Si      -2.19841695       2.69231346       0.37213244       0.00000000
Si       0.89823060      -3.65800095       0.48419661       0.00000000
Si      -2.29842126       0.02498886       3.03894472       0.00000000
Si      -2.37151449      -2.80797246      -1.17246365       0.00000000
