10
Lattice="16.28999089631971 0.0 0.0 0.0 16.28999089631971 0.0 0.0 0.0 34.2284985734139" Properties=species:S:1:pos:R:3:initial_magmoms:R:1 pbc="T T T"
Si       1.35540945       1.35671265       1.35698958       0.00000000
Si       1.35749457      -1.35708732      -1.35798221       0.00000000
Si      -1.35707429       1.35770634      -1.35822181       0.00000000
Si      -1.35912031      -1.35949824       1.35640770       0.00000000
Si       0.00029322      -2.71251306       2.71161740       0.00000000
Si      -2.70862694      -0.00195480       2.71764162       0.00000000
Si      -2.71376423       0.00030951      -2.71500602       0.00000000
Si      -0.00084708      -2.71383255      -2.71510871       0.00000000
Si      -2.71416742      -2.71507059      -0.00068457       0.00000000
Si       2.71533123      -2.71469592      -0.00058188       0.00000000
