10
Lattice="16.28999089631971 0.0 0.0 0.0 16.28999089631971 0.0 0.0 0.0 34.2284985734139" Properties=species:S:1:pos:R:3:initial_magmoms:R:1 pbc="T T T"
Si       0.23353344      -1.41538923       1.87010929       0.00000000
Si       1.62419445       1.63506544       0.54649251       0.00000000
Si       0.45194976      -1.19200446      -2.04238142       0.00000000
Si      -2.26483128       0.70898967       0.41012610       0.00000000
Si      -3.20274432      -1.55820366       0.68179784       0.00000000
Si       0.69051681       0.08555508       3.67573206       0.00000000
Si       1.05301818       2.26942899       2.81248884       0.00000000
Si      -1.91557368      -2.10007422       2.61447687       0.00000000
Si       1.87089021       3.17298968      -1.22640779       0.00000000
Si       0.72510048       0.32793399      -3.86159291       0.00000000
