10
Lattice="16.28999089631971 0.0 0.0 0.0 16.28999089631971 0.0 0.0 0.0 34.2284985734139" Properties=species:S:1:pos:R:3:initial_magmoms:R:1 pbc="T T T"
Si       1.35689184      -1.35678809      -1.35743456       0.00000000
Si       1.35762489       1.35705653       1.35685267       0.00000000
Si      -1.35759231       1.35711844      -1.35770838       0.00000000
Si      -1.35883035      -1.35901982       1.35661307       0.00000000
Si       2.71164191       0.00102722       2.71548522       0.00000000
Si      -0.00035838       2.71391091      -2.71510871       0.00000000
Si       2.71435228       0.00038584      -2.71469797       0.00000000
Si       2.71473961      -2.71454330      -0.00017114       0.00000000
Si      -2.71536381      -2.71478765      -0.00010269       0.00000000
Si       2.71544338       2.71477428      -0.00047920       0.00000000
