10
Lattice="16.28999089631971 0.0 0.0 0.0 16.28999089631971 0.0 0.0 0.0 34.2284985734139" Properties=species:S:1:pos:R:3:initial_magmoms:R:1 pbc="T T T"
Si      -0.61546878       1.90277951      -1.24129719       0.00000000
Si      -1.27342188      -1.95057830      -0.43620823       0.00000000
Si      -0.12763215       0.89447738       2.19897689       0.00000000
Si       2.17020267      -0.02102713      -1.04041002       0.00000000
Si       0.30110436       3.43131908       0.28067385       0.00000000
Si      -0.17084952      -2.58323303      -2.46958755       0.00000000
Si       2.14650072      -2.16047495      -2.16988265       0.00000000
Si      -2.09740266       2.11305083       2.34629643       0.00000000
Si       1.67860305       2.46693479       2.45630689       0.00000000
Si       3.88562505       0.22353953       0.53225345       0.00000000
