10
Lattice="16.28999089631971 0.0 0.0 0.0 16.28999089631971 0.0 0.0 0.0 34.2284985734139" Properties=species:S:1:pos:R:3:initial_magmoms:R:1 pbc="T T T"
Si       1.34950662      -1.35754344      -1.36123392       0.00000000
Si      -1.36399428       1.35998694      -1.36007015       0.00000000
Si       1.35340971       1.34097651       1.39690004       0.00000000
Si      -1.37933946      -1.35397593       1.40008329       0.00000000
Si      -0.36222444       2.43714690       2.72421350       0.00000000
Si       2.70892016      -2.71055826      -0.00602422       0.00000000
Si       2.70862694       0.00195480      -2.71764162       0.00000000
Si       2.70900161       2.72127708      -0.00229331       0.00000000
Si      -0.00554048      -2.71311579      -2.71832619       0.00000000
Si      -2.72043000      -2.71337643       0.00284097       0.00000000
