10
Lattice="16.28999089631971 0.0 0.0 0.0 16.28999089631971 0.0 0.0 0.0 34.2284985734139" Properties=species:S:1:pos:R:3:initial_magmoms:R:1 pbc="T T T"
Si      -1.35689184      -1.35747828      -1.35740033       0.00000000
Si      -1.35360126       1.35811359       1.36034398       0.00000000
Si       1.35791811       1.35775521      -1.35740033       0.00000000
Si       1.35886293      -1.35811359       1.36352723       0.00000000
Si      -0.00498474       2.72020194       2.68050368       0.00000000
Si      -2.71425609       0.00019548      -2.71483488       0.00000000
Si       0.00084708       2.71497285      -2.71456105       0.00000000
Si      -2.71511946       2.71471221      -0.00075303       0.00000000
Si       0.00071676      -2.71550879      -2.71486911       0.00000000
Si       2.71529865       2.71524978       0.00061611       0.00000000
