10
Lattice="16.28999089631971 0.0 0.0 0.0 16.28999089631971 0.0 0.0 0.0 34.2284985734139" Properties=species:S:1:pos:R:3:initial_magmoms:R:1 pbc="T T T"
Si      -0.80635500      -0.52463574      -2.11015389       0.00000000
Si       0.46781622       2.33663760       0.00537388       0.00000000
Si       2.03891897      -1.18296351       0.36336994       0.00000000
Si      -1.80548586      -0.95130342       1.23664212       0.00000000
Si      -0.77279760      -3.08490246       1.29886956       0.00000000
Si      -2.95187832       0.32713578      -2.04665999       0.00000000
Si       1.40205002      -2.73321765       2.07886902       0.00000000
Si       0.37639674       1.76696001       3.28419204       0.00000000
Si      -0.79645068       3.16073241       1.85426149       0.00000000
Si       2.88688841       2.42807337      -0.00431279       0.00000000
