10
Lattice="16.28999089631971 0.0 0.0 0.0 16.28999089631971 0.0 0.0 0.0 34.2284985734139" Properties=species:S:1:pos:R:3:initial_magmoms:R:1 pbc="T T T"
Si       1.36125756       1.14279237      -1.50485678       0.00000000
Si      -1.55536920      -1.26845343      -1.32324027       0.00000000
Si      -1.39300677       1.54479699       1.21989756       0.00000000
Si       1.59676209      -1.50698790       1.01768229       0.00000000
Si      -2.49654024      -0.20417886       2.50126745       0.00000000
Si       0.31410378       2.62404207       2.45379935       0.00000000
Si      -3.42906129       0.31627035      -1.63016738       0.00000000
Si       0.35528490      -2.87619498       2.49937119       0.00000000
Si       2.93647191      -0.21348045       2.44907239       0.00000000
Si       0.18841014       2.53656477      -2.93478734       0.00000000
