10
Lattice="16.28999089631971 0.0 0.0 0.0 16.28999089631971 0.0 0.0 0.0 34.2284985734139" Properties=species:S:1:pos:R:3:initial_magmoms:R:1 pbc="T T T"
Si       1.33970982       1.29350745       1.43139010       0.00000000
Si      -1.24147719      -1.36920708       1.48168891       0.00000000
Si      -1.59676209       1.50698790      -1.01768229       0.00000000
Si       1.52581167      -1.04019795      -1.56581777       0.00000000
Si      -0.23550453       2.64978027      -2.52253907       0.00000000
Si       2.74967774      -2.65157217      -0.24055802       0.00000000
Si      -2.34435906      -3.06776538       0.32899839       0.00000000
Si       0.02394630       2.68442910       2.83673773       0.00000000
Si      -2.68024257      -0.03284064       2.84106764       0.00000000
Si       2.88771920       2.64065787       0.15545193       0.00000000
