10
Lattice="16.28999089631971 0.0 0.0 0.0 16.28999089631971 0.0 0.0 0.0 34.2284985734139" Properties=species:S:1:pos:R:3:initial_magmoms:R:1 pbc="T T T"
Si       1.70711055       1.07924508       1.23390178       0.00000000
Si       1.39300677      -1.54479699      -1.21989756       0.00000000
Si      -1.10353347      -1.74897585       1.28136989       0.00000000
Si      -1.83215259       1.77846075      -0.37448741       0.00000000
Si       0.31511376       2.35809153       2.64352798       0.00000000
Si      -2.43320472      -0.36458649       2.63078470       0.00000000
Si      -2.03605452      -1.22852664      -2.85006495       0.00000000
Si      -0.16236243      -2.81325042      -2.54313783       0.00000000
Si       2.75426433      -0.40200462      -2.72475435       0.00000000
Si      -3.71586303       0.97762806       0.98046699       0.00000000
