10
Lattice="16.28999089631971 0.0 0.0 0.0 16.28999089631971 0.0 0.0 0.0 34.2284985734139" Properties=species:S:1:pos:R:3:initial_magmoms:R:1 pbc="T T T"
Si      -2.43677730      -0.21320352      -0.40122668       0.00000000
Si       1.08735962      -1.58754195      -1.64177085       0.00000000
Si       0.78826544       0.05061303       2.40708628       0.00000000
Si       1.04809909       2.29389264      -0.27369123       0.00000000
Si      -2.25862986       1.67205447      -1.83985128       0.00000000
Si      -0.01814494       3.30146172       1.65970659       0.00000000
Si       1.26967893      -3.52118124      -0.01307529       0.00000000
Si       1.71664232       2.13425064       2.63337101       0.00000000
Si       2.68531088      -1.27985643       2.70011662       0.00000000
Si      -3.72759690      -0.66437136       1.63875874       0.00000000
