10
Lattice="16.28999089631971 0.0 0.0 0.0 16.28999089631971 0.0 0.0 0.0 34.2284985734139" Properties=species:S:1:pos:R:3:initial_magmoms:R:1 pbc="T T T"
Si      -1.35382932      -1.35431802      -1.35637347       0.00000000
Si       1.35871632      -1.35216774       1.35616810       0.00000000
Si      -1.35233064       1.36197432       1.35702381       0.00000000
Si       1.36034532       1.35990549      -1.35633924       0.00000000
Si      -0.00239463      -2.70677898       2.68170168       0.00000000
Si      -0.00967626       2.70185940       2.72246784       0.00000000
Si      -2.71252935      -2.71226871       0.00044497       0.00000000
Si      -2.71142163       0.00257382      -2.71370534       0.00000000
Si       0.00343719      -2.71200807      -2.71336306       0.00000000
Si      -2.71334385       2.71611315       0.00071880       0.00000000
