10
Lattice="16.28999089631971 0.0 0.0 0.0 16.28999089631971 0.0 0.0 0.0 34.2284985734139" Properties=species:S:1:pos:R:3:initial_magmoms:R:1 pbc="T T T"
Si      -2.19714633       0.20839797      -0.81864346       0.00000000
Si      -0.01322748      -2.09828232       1.09250583       0.00000000
Si       0.88712082       2.07747999       0.87118423       0.00000000
Si       1.55548323      -0.61835211      -1.75058331       0.00000000
Si      -2.72627811      -2.04749010      -1.20433040       0.00000000
Si      -3.33301545       0.91953792       1.15688967       0.00000000
Si      -1.08084150      -3.49922232      -0.42662424       0.00000000
Si       3.16201932       1.50713451       1.29856150       0.00000000
Si       2.13229584      -2.95005384       1.02901193       0.00000000
Si       3.32159616      -1.75827744      -0.61929657       0.00000000
