10
Lattice="16.28999089631971 0.0 0.0 0.0 16.28999089631971 0.0 0.0 0.0 34.2284985734139" Properties=species:S:1:pos:R:3:initial_magmoms:R:1 pbc="T T T"
Si       2.27489850      -0.57034548       0.42737727       0.00000000
Si      -0.20748573       1.61875359      -1.74651012       0.00000000
Si      -0.88712082      -2.07747999      -0.87118423       0.00000000
Si      -0.48865113       1.21849200       2.10724446       0.00000000
Si       3.35113875       1.48120083      -0.26099245       0.00000000
Si       1.84015098       2.84019408      -1.50547289       0.00000000
Si      -0.96097968      -0.57790404       3.55415236       0.00000000
Si       0.66836241      -2.69583210      -2.62176754       0.00000000
Si      -2.06073387       3.02269095      -1.51159980       0.00000000
Si      -3.08426715      -1.86908202      -1.68982769       0.00000000
