10
Lattice="16.28999089631971 0.0 0.0 0.0 16.28999089631971 0.0 0.0 0.0 34.2284985734139" Properties=species:S:1:pos:R:3:initial_magmoms:R:1 pbc="T T T"
Si      -1.89704543       1.33046946      -0.29303034       0.00000000
Si      -1.30731648      -1.95172119      -0.26985763       0.00000000
Si       1.49191965       0.38160954       1.85152321       0.00000000
Si       1.46839689       0.49418973      -1.85727360       0.00000000
Si      -0.96866856       3.41410707      -0.06674561       0.00000000
Si       3.11494122      -1.11285135      -1.42014120       0.00000000
Si      -3.14497088       0.79803081       1.61281353       0.00000000
Si       0.16045650      -3.64629821       0.42973904       0.00000000
Si       1.78486272      -3.03889787      -1.28202913       0.00000000
Si      -3.35949389      -1.45560924       0.88521792       0.00000000
