10
Lattice="16.28999089631971 0.0 0.0 0.0 16.28999089631971 0.0 0.0 0.0 34.2284985734139" Properties=species:S:1:pos:R:3:initial_magmoms:R:1 pbc="T T T"
Si      -1.35653346      -1.35576783      -1.35671576       0.00000000
Si       1.35883035       1.35901982      -1.35661307       0.00000000
Si      -1.35329175       1.35761127       1.36451986       0.00000000
Si       1.35954711      -1.35487188       1.36226078       0.00000000
Si      -2.71379997       0.00179190      -2.71380803       0.00000000
Si       0.00122175      -2.71353933      -2.71445837       0.00000000
Si       2.71394658      -2.71482624       0.00034229       0.00000000
Si       2.71572219       0.00223173      -2.71404763       0.00000000
Si       0.00123804       2.71613826      -2.71432145       0.00000000
Si      -2.71541268      -2.71524978       0.00006846       0.00000000
