10
Lattice="16.28999089631971 0.0 0.0 0.0 16.28999089631971 0.0 0.0 0.0 34.2284985734139" Properties=species:S:1:pos:R:3:initial_magmoms:R:1 pbc="T T T"
Si      -0.79907337      -1.82123829       1.28192644       0.00000000
Si       2.23547670       0.26070516       0.76733491       0.00000000
Si       0.50049396       0.13261689      -2.33144125       0.00000000
Si      -1.96333596       1.62870678       0.13759864       0.00000000
Si      -1.26249129       0.01444923       2.83552463       0.00000000
Si      -1.29191103       1.80081063      -2.32442441       0.00000000
Si      -3.33141903       0.25313031       1.67110469       0.00000000
Si       2.33401491       2.43045171       1.61698940       0.00000000
Si      -3.14921538      -2.00147085       1.22045203       0.00000000
Si      -0.36196380      -1.69161876      -3.54994226       0.00000000
