10
Lattice="16.28999089631971 0.0 0.0 0.0 16.28999089631971 0.0 0.0 0.0 34.2284985734139" Properties=species:S:1:pos:R:3:initial_magmoms:R:1 pbc="T T T"
Si      -2.31735024      -0.42275808      -0.29970490       0.00000000
Si       0.96904323      -0.26463105      -2.15235765       0.00000000
Si       1.03873185      -1.63540197       1.40843505       0.00000000
Si       0.02370195       2.13944782       1.12947263       0.00000000
Si       3.27633344      -0.21049938      -1.74887188       0.00000000
Si      -2.14650072       2.16047495       2.16988265       0.00000000
Si      -3.41992260       0.20989665       1.73367442       0.00000000
Si       0.20781153      -1.49253867       3.55901281       0.00000000
Si      -2.62746297      -2.68063353      -0.93382242       0.00000000
Si       0.40721742       1.75710197      -3.46906027       0.00000000
