10
Lattice="16.28999089631971 0.0 0.0 0.0 16.28999089631971 0.0 0.0 0.0 34.2284985734139" Properties=species:S:1:pos:R:3:initial_magmoms:R:1 pbc="T T T"
Si      -0.09853821      -2.16974655      -0.84965449       0.00000000
Si       2.30729021       0.05413167       0.40348577       0.00000000
Si      -0.96904323       0.26463105       2.15235765       0.00000000
Si      -0.56182581       2.02173302      -1.31670262       0.00000000
Si       3.15821465      -0.08426817      -1.88253425       0.00000000
Si      -2.33401491      -2.43045171      -1.61698940       0.00000000
Si      -3.28639347      -0.15812703       1.85265275       0.00000000
Si       0.06968862      -1.37077092       3.56079270       0.00000000
Si       2.95732637       2.08686044       1.41945663       0.00000000
Si       0.75569866      -3.81692619       0.62901747       0.00000000
