10
Lattice="16.28999089631971 0.0 0.0 0.0 16.28999089631971 0.0 0.0 0.0 34.2284985734139" Properties=species:S:1:pos:R:3:initial_magmoms:R:1 pbc="T T T"
Si       1.18910484       1.82122200      -0.76983359       0.00000000
Si      -0.41694255       0.85695174       2.15136502       0.00000000
Si      -1.79199774      -0.93988413      -1.25016238       0.00000000
Si       1.36176255      -1.66211757       1.06050216       0.00000000
Si       1.50616479      -0.33383097       2.96887894       0.00000000
Si      -2.26432629      -2.73628017       0.19674552       0.00000000
Si      -0.04826727      -3.50054181       0.76483623       0.00000000
Si       2.83793207       0.95985567      -2.13322391       0.00000000
Si       2.11234452       2.77951383       1.21062844       0.00000000
Si      -2.68377750       0.35585505       2.58261012       0.00000000
