10
Lattice="16.28999089631971 0.0 0.0 0.0 16.28999089631971 0.0 0.0 0.0 34.2284985734139" Properties=species:S:1:pos:R:3:initial_magmoms:R:1 pbc="T T T"
Si       1.35807775      -1.35171162       1.35873524       0.00000000
Si      -1.35742990      -1.35558864      -1.35712650       0.00000000
Si       1.35807775       1.35925389      -1.35705804       0.00000000
Si      -1.35564795       1.35808101       1.36161043       0.00000000
Si       2.69286406      -0.00817758       2.72845783       0.00000000
Si       2.71311253      -2.71432125       0.00037651       0.00000000
Si      -2.71491813      -2.71300176       0.00095840       0.00000000
Si       0.00062879      -2.71332756      -2.71483488       0.00000000
Si      -2.71486926       0.00136836      -2.71432145       0.00000000
Si       2.71594699       0.00190593      -2.71442414       0.00000000
