10
Lattice="16.28999089631971 0.0 0.0 0.0 16.28999089631971 0.0 0.0 0.0 34.2284985734139" Properties=species:S:1:pos:R:3:initial_magmoms:R:1 pbc="T T T"
Si       2.21661288      -0.02039508       0.77157925       0.00000000
Si      -0.81656883      -2.23256079      -0.08403101       0.00000000
Si      -1.09555137       0.71032545       2.03752097       0.00000000
Si       0.43324884       1.00582605      -2.91780999       0.00000000
Si       2.75209776      -1.65273453      -1.11321408       0.00000000
Si       2.43012591       2.28393945       1.18221877       0.00000000
Si      -3.37533850       0.48668004       1.36280843       0.00000000
Si       1.10097594      -3.57715368      -0.38476277       0.00000000
Si      -0.25498737      -0.58604904       3.85320692       0.00000000
Si       2.12107203      -0.75618180      -3.23719629       0.00000000
