10
Lattice="16.28999089631971 0.0 0.0 0.0 16.28999089631971 0.0 0.0 0.0 34.2284985734139" Properties=species:S:1:pos:R:3:initial_magmoms:R:1 pbc="T T T"
Si       0.21822084       2.22953085       0.68176362       0.00000000
Si       0.84056400      -1.29637449       1.81568595       0.00000000
Si      -2.27978713      -0.22364541      -0.67471254       0.00000000
Si       1.09555137      -0.71032545      -2.03752097       0.00000000
Si      -3.08792330      -0.07299549       1.52101264       0.00000000
Si      -1.54435064      -1.28964672       2.86564573       0.00000000
Si       3.31216425      -0.73072053      -1.26594173       0.00000000
Si       0.27898254      -2.94288624      -2.12155198       0.00000000
Si      -0.46418355      -3.16555425       1.73370865       0.00000000
Si      -1.20728448      -3.54944439      -0.38075803       0.00000000
