10
Lattice="16.28999089631971 0.0 0.0 0.0 16.28999089631971 0.0 0.0 0.0 34.2284985734139" Properties=species:S:1:pos:R:3:initial_magmoms:R:1 pbc="T T T"
Si      -0.74310093      -0.38389014      -2.11446668       0.00000000
Si       1.30474755       1.86917976       0.08197730       0.00000000
Si       0.54669240      -1.91027943       1.20080486       0.00000000
Si      -1.08016709       1.87590753       1.13193708       0.00000000
Si      -1.59312942      -2.81517264       1.48822172       0.00000000
Si      -1.56682596       0.81277326       3.16521372       0.00000000
Si       0.46418355       3.16555425      -1.73370865       0.00000000
Si       1.64502936      -1.21448466       3.16103784       0.00000000
Si      -1.67147780      -2.46752775      -2.34075141       0.00000000
Si       1.71748728      -3.41638767      -0.19619786       0.00000000
