10
Lattice="16.28999089631971 0.0 0.0 0.0 16.28999089631971 0.0 0.0 0.0 34.2284985734139" Properties=species:S:1:pos:R:3:initial_magmoms:R:1 pbc="T T T"
Si      -2.16439203       0.10612935      -0.99892506       0.00000000
Si       1.04746329      -1.92112857      -1.00310094       0.00000000
Si      -0.83183256      -0.09073530       2.27893471       0.00000000
Si       1.18359882       2.03258475      -0.65629760       0.00000000
Si      -0.64506771       2.94928821      -1.81291344       0.00000000
Si      -1.67773316       1.16926362      -3.03220170       0.00000000
Si       3.17211912      -1.05221997      -1.72378238       0.00000000
Si      -3.49535249       1.41374394       0.44264319       0.00000000
Si       0.13207932      -2.11295961       3.20081138       0.00000000
Si       1.42648272       3.38846661       1.18478591       0.00000000
