10
Lattice="16.28999089631971 0.0 0.0 0.0 16.28999089631971 0.0 0.0 0.0 34.2284985734139" Properties=species:S:1:pos:R:3:initial_magmoms:R:1 pbc="T T T"
Si      -1.80900028      -1.14398154      -1.04527047       0.00000000
Si       1.31422344      -1.15310394       1.63272053       0.00000000
Si       1.89297456       0.76282812      -1.30177899       0.00000000
Si      -1.30249301       1.61253081       1.46391947       0.00000000
Si      -1.57181788       2.08821510      -2.17953509       0.00000000
Si       0.57073155       1.52751330      -3.07526117       0.00000000
Si      -1.42741565       3.41650170      -0.27115832       0.00000000
Si       2.75798985       2.51571357       0.02416533       0.00000000
Si       3.10830630      -2.04631722       0.42131882       0.00000000
Si      -0.23378593      -2.50025436       2.90865869       0.00000000
