10
Lattice="16.28999089631971 0.0 0.0 0.0 16.28999089631971 0.0 0.0 0.0 34.2284985734139" Properties=species:S:1:pos:R:3:initial_magmoms:R:1 pbc="T T T"
Si      -1.35743363      -1.35685926      -1.35743456       0.00000000
Si       1.35732352       1.35777503      -1.35743456       0.00000000
Si       1.35854528      -1.35641943       1.35777684       0.00000000
Si      -1.36053134       1.35871126       1.35822181       0.00000000
Si       2.70843241      -0.02709027       2.71421877       0.00000000
Si       2.71312393       2.71481551      -0.00085571       0.00000000
Si       2.71380811      -2.71417464      -0.00023960       0.00000000
Si      -2.71454835       2.71474057      -0.00041074       0.00000000
Si       0.00023295      -2.71463076      -2.71483488       0.00000000
Si       2.71498099       0.00034209      -2.71456105       0.00000000
