10
Lattice="16.28999089631971 0.0 0.0 0.0 16.28999089631971 0.0 0.0 0.0 34.2284985734139" Properties=species:S:1:pos:R:3:initial_magmoms:R:1 pbc="T T T"
Si       1.34988714       1.32932916       1.35644193       0.00000000
Si       1.35526284      -1.35775521      -1.35801644       0.00000000
Si      -1.35854528       1.35641943      -1.35777684       0.00000000
Si      -1.34915735      -1.37378457       1.38817176       0.00000000
Si      -0.03805344       2.62699056       2.70494284       0.00000000
Si       2.56189572      -0.18723726       2.77189382       0.00000000
Si      -0.00122175       2.71419446      -2.71521140       0.00000000
Si       2.71551042       2.71396287       0.00308057       0.00000000
Si       2.71415835      -0.00094482      -2.71572482       0.00000000
Si      -0.00073305      -2.71575477      -2.71527985       0.00000000
