10
Lattice="16.28999089631971 0.0 0.0 0.0 16.28999089631971 0.0 0.0 0.0 34.2284985734139" Properties=species:S:1:pos:R:3:initial_magmoms:R:1 pbc="T T T"
Si      -0.53470296       1.72031264      -1.53045971       0.00000000
Si       2.29299669      -0.53447490       0.42706922       0.00000000
Si      -1.10671002      -1.76697630      -1.23592332       0.00000000
Si      -1.07300601       0.37773252       2.14027498       0.00000000
Si      -2.71766396       2.00523940      -0.51489959       0.00000000
Si      -3.41833337       0.29646171       1.05317726       0.00000000
Si       1.11780351       0.63843768       3.35415514       0.00000000
Si       2.20929867      -1.31549895       2.60136735       0.00000000
Si       2.93299821      -2.13444612      -1.12019670       0.00000000
Si       1.11079881       3.40694666      -1.36393797       0.00000000
