10
Lattice="16.28999089631971 0.0 0.0 0.0 16.28999089631971 0.0 0.0 0.0 34.2284985734139" Properties=species:S:1:pos:R:3:initial_magmoms:R:1 pbc="T T T"
Si      -0.87484305      -1.97100855       0.93135797       0.00000000
Si       1.07300601      -0.37773252      -2.14027498       0.00000000
Si      -0.63793269       2.04244739       1.20255051       0.00000000
Si       2.19080952       0.26070516       1.21388015       0.00000000
Si      -2.34532736      -0.08127081      -1.08709772       0.00000000
Si      -1.64465795       1.62750688      -2.65517458       0.00000000
Si      -2.52367028      -1.10964222       2.29474828       0.00000000
Si       3.28230468      -1.69323147       0.46109236       0.00000000
Si      -3.60822590       0.38714751       0.84790884       0.00000000
Si       3.36600270      -0.91220742      -1.71320577       0.00000000
