10
Lattice="10.86 0.0 0.0 0.0 10.86 0.0 0.0 0.0 10.86" Properties=species:S:1:pos:R:3:initial_magmoms:R:1 pbc="T T T"
Si      -0.66341568      -1.18465224       1.76797542       0.00000000
Si       1.45619568      -1.22633292      -1.26532032       0.00000000
Si      -1.25880432       1.48866708      -1.26532032       0.00000000
Si       1.45619568       1.48866708       1.44967968       0.00000000
Si      -2.44383666      -2.44500954       0.26356134       0.00000000
Si       0.09869568      -2.58383292      -2.62282032       0.00000000
Si      -2.61630432       0.13116708      -2.62282032       0.00000000
Si       2.57086608       0.24314454       2.76219756       0.00000000
Si       2.81369568       0.13116708      -2.62282032       0.00000000
Si       3.21599352      -2.11216140      -0.38756082       0.00000000
