10
Lattice="10.86 0.0 0.0 0.0 10.86 0.0 0.0 0.0 10.86" Properties=species:S:1:pos:R:3:initial_magmoms:R:1 pbc="T T T"
Si      -1.33828866       1.36012812      -1.03748838       0.00000000
Si       1.41035562      -1.45578300      -1.29750936       0.00000000
Si      -1.33828866      -1.35487188       1.67751162       0.00000000
Si       1.37671134       1.36012812       1.67751162       0.00000000
Si      -2.69578866       0.00262812      -2.39498838       0.00000000
Si      -0.04183272       2.89525428      -2.28888618       0.00000000
Si       2.59278156      -2.77044030       0.21271482       0.00000000
Si      -2.69578866      -2.71237188       0.32001162       0.00000000
Si      -2.69578866       2.71762812       0.32001162       0.00000000
Si       2.89681812       2.66633634       0.37860132       0.00000000
