10
Lattice="10.86 0.0 0.0 0.0 10.86 0.0 0.0 0.0 10.86" Properties=species:S:1:pos:R:3:initial_magmoms:R:1 pbc="T T T"
Si       1.01526882       1.57905486       1.08237276       0.00000000
Si       1.01526882      -1.13594514      -1.63262724       0.00000000
Si      -1.69973118      -1.13594514       1.08237276       0.00000000
Si       2.37276882       0.22155486       2.43987276       0.00000000
Si       2.37276882      -2.49344514      -0.27512724       0.00000000
Si      -0.34223118      -2.49344514       2.43987276       0.00000000
Si       2.37276882       2.93655486      -0.27512724       0.00000000
Si       2.37276882       0.22155486      -2.99012724       0.00000000
Si      -0.34223118       2.93655486       2.43987276       0.00000000
Si      -3.05723118       0.22155486       2.43987276       0.00000000
