10
Lattice="16.28999089631971 0.0 0.0 0.0 16.28999089631971 0.0 0.0 0.0 34.51530692428229" Properties=species:S:1:pos:R:3:initial_magmoms:R:1 pbc="T T T"
Si       0.56946582      -1.84287141       1.25035221       0.00000000
Si      -2.00911805      -0.44445636      -1.15464121       0.00000000
Si       1.75676247       0.12593799      -1.59802509       0.00000000
Si      -0.45105218       1.65835458       1.65028129       0.00000000
Si       0.80251056      -1.17628461      -3.29994131       0.00000000
Si       0.97904529       3.34097053       0.97616246       0.00000000
Si      -3.01124627       1.65460788      -1.13904028       0.00000000
Si      -2.76839495       2.08500597       1.23885860       0.00000000
Si       2.87282295      -1.71968643       1.69546185       0.00000000
Si      -1.51649637      -1.53771084      -3.16885210       0.00000000
