10
Lattice="16.28999089631971 0.0 0.0 0.0 16.28999089631971 0.0 0.0 0.0 34.51530692428229" Properties=species:S:1:pos:R:3:initial_magmoms:R:1 pbc="T T T"
Si      -1.20502017      -1.55210373      -1.36345893       0.00000000
Si       1.53740133       1.16711171      -1.49679164       0.00000000
Si       0.22768533      -0.52581025       2.42142271       0.00000000
Si      -1.44744795       2.05529138      -0.45159853       0.00000000
Si       2.38614291       0.83751614       2.26575859       0.00000000
Si      -2.38567050      -0.07420258      -2.85186334       0.00000000
Si      -1.95594030       0.18912201       3.21776032       0.00000000
Si      -2.99548828      -2.36214027       0.08401030       0.00000000
Si       3.26925639       1.99226537      -0.05781317       0.00000000
Si       0.31465764       2.66808860      -2.84009362       0.00000000
