10
Lattice="16.28999089631971 0.0 0.0 0.0 16.28999089631971 0.0 0.0 0.0 34.51530692428229" Properties=species:S:1:pos:R:3:initial_magmoms:R:1 pbc="T T T"
Si       1.13788908       1.53466461      -1.42231589       0.00000000
Si      -1.22776101       1.35679410       1.53370923       0.00000000
Si      -1.54940706      -1.28264202      -1.29260729       0.00000000
Si       1.47660705      -1.35285192       1.52010674       0.00000000
Si       1.65508029      -0.44636229      -2.65064732       0.00000000
Si      -2.52508032       2.73486294       0.06788474       0.00000000
Si       2.73450456       2.63379978       0.16786529       0.00000000
Si      -2.58551622       0.00902466       2.90944181       0.00000000
Si      -2.73388554      -2.77915545       0.09582835       0.00000000
Si       0.12931002      -2.70200601       2.90833732       0.00000000
