10
Lattice="16.28999089631971 0.0 0.0 0.0 16.28999089631971 0.0 0.0 0.0 34.51530692428229" Properties=species:S:1:pos:R:3:initial_magmoms:R:1 pbc="T T T"
Si      -1.34109054      -1.36428750      -1.39597237       0.00000000
Si       1.37373570       1.35034326      -1.39466079       0.00000000
Si       1.25880975      -1.46566017       1.45806544       0.00000000
Si      -1.39696524       1.38113136       1.61738819       0.00000000
Si      -2.68521102       2.69213427      -0.02250399       0.00000000
Si      -2.70928764      -2.70326034      -0.01970825       0.00000000
Si       2.72039742       2.71278999      -0.01629123       0.00000000
Si       2.72334591      -2.71969695      -0.01822409       0.00000000
Si      -2.70093087      -0.00733050      -2.75387433       0.00000000
Si       0.01321119       2.70765864      -2.75442658       0.00000000
