10
Lattice="16.28999089631971 0.0 0.0 0.0 16.28999089631971 0.0 0.0 0.0 34.51530692428229" Properties=species:S:1:pos:R:3:initial_magmoms:R:1 pbc="T T T"
Si      -0.87118173       2.14762294      -0.09163819       0.00000000
Si      -1.60823907      -1.21530814       1.19119294       0.00000000
Si      -0.17841134      -0.35571742      -2.37420574       0.00000000
Si       2.12335100       0.71871627       0.91872895       0.00000000
Si       0.86422034       3.17244313      -1.37029297       0.00000000
Si      -0.60611085      -3.31437238       1.17559201       0.00000000
Si       1.19351780       1.53907415      -3.10123658       0.00000000
Si      -2.80167705       1.97012710      -1.44760730       0.00000000
Si      -2.50404246       0.11311923      -2.85496972       0.00000000
Si       3.74827850      -0.63658960      -0.16249816       0.00000000
