10
Lattice="16.28999089631971 0.0 0.0 0.0 16.28999089631971 0.0 0.0 0.0 34.51530692428229" Properties=species:S:1:pos:R:3:initial_magmoms:R:1 pbc="T T T"
Si      -0.86322339      -2.09458449       0.58624282       0.00000000
Si       1.53523476      -0.63710190      -1.71903582       0.00000000
Si      -1.98729855       1.25582868      -0.47203160       0.00000000
Si       1.02765465       1.05391413       1.94552539       0.00000000
Si      -2.18000925      -1.58985513       2.48589734       0.00000000
Si      -2.05853472       2.92338711       1.24638294       0.00000000
Si       3.26704095       0.36421182       2.05200517       0.00000000
Si       3.05916426      -2.30032719      -0.83433898       0.00000000
Si      -1.45041273      -3.39949494      -1.34416486       0.00000000
Si       3.38507829       0.76175298      -1.87318127       0.00000000
