10
Lattice="16.28999089631971 0.0 0.0 0.0 16.28999089631971 0.0 0.0 0.0 34.51530692428229" Properties=species:S:1:pos:R:3:initial_magmoms:R:1 pbc="T T T"
Si       1.67152830      -0.16413804       1.67368268       0.00000000
Si      -1.73540206      -1.02482019       1.27865477       0.00000000
Si      -0.40485863       2.35353033      -0.21893071       0.00000000
Si       0.32929746      -1.63336898      -1.73094361       0.00000000
Si      -0.86422034      -3.17244313       1.37029297       0.00000000
Si       1.25913066      -2.45372686       2.28902192       0.00000000
Si      -1.04263168      -3.52816055      -1.00391278       0.00000000
Si       1.68068328       3.47169222      -0.11186417       0.00000000
Si      -3.66589738      -1.20231603      -0.07731433       0.00000000
Si      -1.09475479       3.32376273       1.87718505       0.00000000
