10
Lattice="16.28999089631971 0.0 0.0 0.0 16.28999089631971 0.0 0.0 0.0 34.51530692428229" Properties=species:S:1:pos:R:3:initial_magmoms:R:1 pbc="T T T"
Si       1.35604476       1.35617508       1.35776390       0.00000000
Si      -1.35751086       1.35755973      -1.35769487       0.00000000
Si       1.35757602      -1.35770634      -1.35800551       0.00000000
Si      -1.35809730      -1.35881406       1.35831615       0.00000000
Si      -0.00109143       2.71417464      -2.71400913       0.00000000
Si       2.71419093       0.00078192      -2.71504459       0.00000000
Si      -2.71573848      -0.00061902      -2.71366398       0.00000000
Si      -2.71485882       2.71497285      -0.00069031       0.00000000
Si       2.71507059       2.71513575      -0.00006903       0.00000000
Si       2.71526607      -2.71497285      -0.00027612       0.00000000
