10
Lattice="16.28999089631971 0.0 0.0 0.0 16.28999089631971 0.0 0.0 0.0 34.51530692428229" Properties=species:S:1:pos:R:3:initial_magmoms:R:1 pbc="T T T"
Si      -1.35325917      -1.35203742      -1.38361588       0.00000000
Si       1.35767376       1.36277253      -1.38047499       0.00000000
Si      -1.43905860       1.32524037       1.42002955       0.00000000
Si       1.37741724      -1.34936586       1.48937084       0.00000000
Si       2.70803331      -2.70642060      -0.00562600       0.00000000
Si      -2.69757513      -2.72707632      -0.01183876       0.00000000
Si      -2.72318301       2.71884987      -0.01007848       0.00000000
Si       2.71645524       2.72836323      -0.00538439       0.00000000
Si       0.00084708      -2.71155195      -2.74376134       0.00000000
Si      -2.71412577       0.00444717      -2.74434810       0.00000000
