10
Lattice="16.28999089631971 0.0 0.0 0.0 16.28999089631971 0.0 0.0 0.0 34.51530692428229" Properties=species:S:1:pos:R:3:initial_magmoms:R:1 pbc="T T T"
Si      -1.13788908      -1.53466461       1.42231589       0.00000000
Si       0.51719121      -1.98102690      -1.22833143       0.00000000
Si       1.59661548       1.09913517       1.59018117       0.00000000
Si      -1.27933515       1.58992029      -1.62473995       0.00000000
Si       2.58655878       2.71849149       0.15241968       0.00000000
Si      -2.36565009      -0.17787051       2.95602512       0.00000000
Si      -2.56712481       2.81903337       0.10140603       0.00000000
Si       2.75678928      -2.69579952       0.29735337       0.00000000
Si      -2.68729614      -2.81730663       0.12970860       0.00000000
Si       0.34826391       2.53529415       2.97535370       0.00000000
