10
Lattice="16.28999089631971 0.0 0.0 0.0 16.28999089631971 0.0 0.0 0.0 34.51530692428229" Properties=species:S:1:pos:R:3:initial_magmoms:R:1 pbc="T T T"
Si       1.35464382       1.35651717      -1.35665941       0.00000000
Si      -1.35747828       1.35744570       1.35710811       0.00000000
Si       1.35747828      -1.35705474       1.35755681       0.00000000
Si      -1.35868374      -1.35801585      -1.35638329       0.00000000
Si      -0.00086337      -2.71151937      -2.71742615       0.00000000
Si      -0.00289962       2.71454931       2.71473395       0.00000000
Si       2.71352304       0.00407250      -2.71583844       0.00000000
Si       2.71524978      -2.71443528       0.00000000       0.00000000
Si      -2.71510317      -2.71463076      -0.00006903       0.00000000
Si       2.71477737       2.71510317      -0.00037967       0.00000000
