10
Lattice="16.28999089631971 0.0 0.0 0.0 16.28999089631971 0.0 0.0 0.0 34.51530692428229" Properties=species:S:1:pos:R:3:initial_magmoms:R:1 pbc="T T T"
Si      -1.82606013      -1.03974183       1.09282426       0.00000000
Si      -1.28412441       1.39360950      -1.43010803       0.00000000
Si       1.43905860      -1.32524037      -1.42002955       0.00000000
Si       1.45428975       1.24608726       1.51781147       0.00000000
Si       2.02354380      -0.31131819       3.22866716       0.00000000
Si       2.77897626       2.63622699       0.13102018       0.00000000
Si      -2.80227096       2.62208727       0.04756212       0.00000000
Si      -2.63176353       0.03748329      -2.80264449       0.00000000
Si       0.08579943      -2.67727779      -2.80364543       0.00000000
Si      -2.71518462      -2.77368201      -0.10837812       0.00000000
