10
Lattice="16.28999089631971 0.0 0.0 0.0 16.28999089631971 0.0 0.0 0.0 34.51530692428229" Properties=species:S:1:pos:R:3:initial_magmoms:R:1 pbc="T T T"
Si       0.79772130       1.90567655       1.14414855       0.00000000
Si      -1.32468651      -1.39013973       1.38679129       0.00000000
Si       1.37653758      -1.23310413      -1.55643412       0.00000000
Si      -1.34066700       1.44860847      -1.55705540       0.00000000
Si       2.73865851      -2.63213820      -0.20222530       0.00000000
Si      -2.77897626      -2.63622699      -0.13102018       0.00000000
Si       0.31327299       1.60070331       3.50361625       0.00000000
Si      -1.10697066       3.53022938       1.22218770       0.00000000
Si       0.01775610      -2.59869483      -2.93152472       0.00000000
Si      -2.83882572       2.70507572      -0.21679076       0.00000000
