10
Lattice="16.28999089631971 0.0 0.0 0.0 16.28999089631971 0.0 0.0 0.0 34.51530692428229" Properties=species:S:1:pos:R:3:initial_magmoms:R:1 pbc="T T T"
Si       1.43847216      -1.19110851       1.41389273       0.00000000
Si       1.11830850       1.70722458      -1.27555633       0.00000000
Si      -1.29976281       1.51550757       1.36951292       0.00000000
Si      -0.95887827      -1.81110591      -1.38490472       0.00000000
Si       0.88829370      -3.31459146      -1.12791737       0.00000000
Si       2.83048524      -2.45529070       0.03266185       0.00000000
Si       0.07148052      -2.55274074       2.75639740       0.00000000
Si      -2.64705984       0.16635348       2.75774350       0.00000000
Si      -2.79163359      -2.66340685      -0.08586033       0.00000000
Si      -1.12128957       2.42199720      -2.80124114       0.00000000
