10
Lattice="16.28999089631971 0.0 0.0 0.0 16.28999089631971 0.0 0.0 0.0 34.51530692428229" Properties=species:S:1:pos:R:3:initial_magmoms:R:1 pbc="T T T"
Si       1.35622395       1.35688738       1.35690102       0.00000000
Si      -1.35711990       1.35687109      -1.35728069       0.00000000
Si       1.35765747      -1.35800469      -1.35776390       0.00000000
Si      -1.36001952      -1.35855855       1.35734972       0.00000000
Si      -2.71407690      -0.00081336      -2.71380204       0.00000000
Si      -2.71482624       0.00312255       2.71349140       0.00000000
Si      -2.71432125       2.71435589      -0.00051773       0.00000000
Si       2.71430496      -0.00079166      -2.71480298       0.00000000
Si      -0.00053757       2.71446992      -2.71532071       0.00000000
Si       2.71233387       0.00394326       2.71749518       0.00000000
