10
Lattice="16.28999089631971 0.0 0.0 0.0 16.28999089631971 0.0 0.0 0.0 34.51530692428229" Properties=species:S:1:pos:R:3:initial_magmoms:R:1 pbc="T T T"
Si      -1.35689184      -1.35812988      -1.35710811       0.00000000
Si       1.35856971       1.35663120      -1.35710811       0.00000000
Si      -1.36029645       1.35632169       1.35900645       0.00000000
Si       1.36029645      -1.36088289       1.36335539       0.00000000
Si      -2.71340901       2.71290402      -0.00179480       0.00000000
Si      -2.71375110      -0.00084708      -2.71490653       0.00000000
Si       0.00099369       2.71409319      -2.71518265       0.00000000
Si       2.71578735      -0.00055386      -2.71490653       0.00000000
Si       0.00076563      -2.71593396      -2.71538974       0.00000000
Si      -2.71552671      -2.71623370      -0.00058676       0.00000000
