10
Lattice="16.28999089631971 0.0 0.0 0.0 16.28999089631971 0.0 0.0 0.0 34.51530692428229" Properties=species:S:1:pos:R:3:initial_magmoms:R:1 pbc="T T T"
Si      -0.00026064      -0.95441385      -2.10153467       0.00000000
Si       1.03366566      -1.27803099       1.63298911       0.00000000
Si      -2.19392091       0.27541829       0.82246571       0.00000000
Si       1.46724030       1.83815546      -0.26024556       0.00000000
Si      -1.67523102      -2.57435661      -1.91263229       0.00000000
Si      -1.72742418       0.32522659       3.17782608       0.00000000
Si       0.00094482       0.93628404      -3.53443843       0.00000000
Si       3.25568682      -0.49679434       1.61586951       0.00000000
Si       0.52841502       3.43811038       1.23074750       0.00000000
Si       1.40561523       2.56649765      -2.52124103       0.00000000
