10
Lattice="16.28999089631971 0.0 0.0 0.0 16.28999089631971 0.0 0.0 0.0 34.51530692428229" Properties=species:S:1:pos:R:3:initial_magmoms:R:1 pbc="T T T"
Si      -1.46724030      -1.83815546       0.26024556       0.00000000
Si      -0.06162507       0.72834219      -2.26099547       0.00000000
Si      -0.93882528       1.59995493       1.49099306       0.00000000
Si       2.24639100      -0.35096805       0.76955371       0.00000000
Si      -0.99357597       3.25275462      -0.16909058       0.00000000
Si       1.78844652      -2.33494979       1.87611507       0.00000000
Si      -1.83355353       2.31288678      -2.13159752       0.00000000
Si      -1.46750094      -2.79256931      -1.84128911       0.00000000
Si      -0.43357464      -3.11618645       1.89323467       0.00000000
Si      -1.46629548      -0.90187142      -3.27419288       0.00000000
