10
Lattice="16.28999089631971 0.0 0.0 0.0 16.28999089631971 0.0 0.0 0.0 34.51530692428229" Properties=species:S:1:pos:R:3:initial_magmoms:R:1 pbc="T T T"
Si      -1.13893164      -2.05398071       0.28696042       0.00000000
Si      -0.28906605       0.81256149       2.21426172       0.00000000
Si       2.40256323      -0.10748305       0.13246982       0.00000000
Si      -1.39947390       1.40822163      -1.41996052       0.00000000
Si      -0.08474058      -3.17227292      -1.42210047       0.00000000
Si      -1.35487188       2.78793576       1.66136071       0.00000000
Si      -2.97893601       2.02562892       0.16663999       0.00000000
Si      -0.02145393      -1.66549465      -3.26625435       0.00000000
Si       2.78850591      -2.24832041       1.11902139       0.00000000
Si      -0.72278730      -2.69945567       2.55606700       0.00000000
