10
Lattice="16.28999089631971 0.0 0.0 0.0 16.28999089631971 0.0 0.0 0.0 34.51530692428229" Properties=species:S:1:pos:R:3:initial_magmoms:R:1 pbc="T T T"
Si      -1.50083028       1.69385049       0.49798713       0.00000000
Si       2.17326519       0.79356735      -0.17996291       0.00000000
Si      -0.83997756      -0.93986784      -1.96250693       0.00000000
Si       0.05475069      -1.65279969       1.66008364       0.00000000
Si       0.99357597      -3.25275462       0.16909058       0.00000000
Si       0.93195090      -2.52441243      -2.09190489       0.00000000
Si       1.97930016       2.62443303       1.26370964       0.00000000
Si      -2.20718097      -1.59668064       2.31552969       0.00000000
Si      -2.69720046       0.68168763       2.28398268       0.00000000
Si      -2.50996320       2.11221027      -1.65200706       0.00000000
