10
Lattice="16.28999089631971 0.0 0.0 0.0 16.28999089631971 0.0 0.0 0.0 34.51530692428229" Properties=species:S:1:pos:R:3:initial_magmoms:R:1 pbc="T T T"
Si      -0.86697009      -2.03473503       0.67273822       0.00000000
Si       0.70683939       0.46372743       2.23524704       0.00000000
Si       1.57152888      -0.32584887      -1.78230241       0.00000000
Si      -1.52392950       1.66322529      -0.88469684       0.00000000
Si       0.32591403       3.06208017      -1.03884229       0.00000000
Si      -2.37856806      -2.12621967      -1.12154101       0.00000000
Si       2.15800146       1.98184140      -2.08137772       0.00000000
Si      -2.44643220      -1.41732774       2.25933874       0.00000000
Si      -1.72312362      -1.07557983      -3.11787296       0.00000000
Si      -0.82236807      -0.65502090       3.75405946       0.00000000
