10
Lattice="16.28999089631971 0.0 0.0 0.0 16.28999089631971 0.0 0.0 0.0 34.51530692428229" Properties=species:S:1:pos:R:3:initial_magmoms:R:1 pbc="T T T"
Si       0.46485144       2.18386998       0.69776183       0.00000000
Si       1.26715023       0.02862153      -1.97658919       0.00000000
Si       0.66461571      -1.92210597       1.25138767       0.00000000
Si      -2.39984280       0.40428522      -0.19335486       0.00000000
Si      -0.17161515      -3.60988192      -0.20343333       0.00000000
Si      -1.27747809       2.55709017       2.22537566       0.00000000
Si       0.09260865       3.45703122      -1.23268036       0.00000000
Si       0.80580114       2.10285981      -2.97045800       0.00000000
Si      -1.21132440       0.50764527       3.58355374       0.00000000
Si       0.43637652      -1.50509826      -3.48960303       0.00000000
