10
Lattice="16.28999089631971 0.0 0.0 0.0 16.28999089631971 0.0 0.0 0.0 34.51530692428229" Properties=species:S:1:pos:R:3:initial_magmoms:R:1 pbc="T T T"
Si       0.02363679      -2.21552145       0.73079300       0.00000000
Si       2.23686135       0.59619771      -0.44193424       0.00000000
Si      -0.44007435       1.85764644      -1.43849525       0.00000000
Si       0.83935854      -0.70169175      -2.27725219       0.00000000
Si      -2.03716224      -0.19831446       2.58920171       0.00000000
Si      -1.74105891      -2.97253404      -0.57754495       0.00000000
Si      -2.67845067       2.23912566      -0.38633005       0.00000000
Si       1.76682969       3.33159822      -0.24761295       0.00000000
Si       1.76349024      -3.04925994      -1.37912889       0.00000000
Si      -3.88922121       0.03526785      -0.37456032       0.00000000
