10
Lattice="16.28999089631971 0.0 0.0 0.0 16.28999089631971 0.0 0.0 0.0 34.51530692428229" Properties=species:S:1:pos:R:3:initial_magmoms:R:1 pbc="T T T"
Si       1.35448092       1.35596331       1.37661963       0.00000000
Si      -1.36057338      -1.35273789       1.37806927       0.00000000
Si       1.21671639      -1.48387239      -1.42989403       0.00000000
Si      -1.38225537       1.26214920      -1.50227267       0.00000000
Si       2.38397634       0.16097778      -2.63613600       0.00000000
Si      -2.03613597      -0.64558899      -2.97218864       0.00000000
Si      -0.48079935      -2.54241288      -2.80226969       0.00000000
Si      -2.73448827       2.69520121      -0.01073772       0.00000000
Si       2.72909628       2.70594819       0.00130813       0.00000000
Si       2.71788876      -2.72003904      -0.01651558       0.00000000
