10
Lattice="16.28999089631971 0.0 0.0 0.0 16.28999089631971 0.0 0.0 0.0 34.51530692428229" Properties=species:S:1:pos:R:3:initial_magmoms:R:1 pbc="T T T"
Si       1.35651717      -1.34534223      -1.37685088       0.00000000
Si      -1.36212093       1.39903407      -1.35420882       0.00000000
Si       1.92648798       0.72630594       1.27461648       0.00000000
Si      -1.25571465      -0.69688620       2.24770707       0.00000000
Si       0.02371824      -3.25622439       1.40895013       0.00000000
Si       0.95118939       0.77706558       3.43858937       0.00000000
Si       2.72339478       2.64738564       0.05964248       0.00000000
Si      -2.73865851       2.63213820       0.20222530       0.00000000
Si      -2.70115893      -2.67869502       0.14054641       0.00000000
Si       2.60582985      -2.78189217       0.05298103       0.00000000
