10
Lattice="16.28999089631971 0.0 0.0 0.0 16.28999089631971 0.0 0.0 0.0 34.51530692428229" Properties=species:S:1:pos:R:3:initial_magmoms:R:1 pbc="T T T"
Si      -1.39201308       1.26418219       1.38123087       0.00000000
Si       1.32748839      -1.46482353       1.35042594       0.00000000
Si      -1.94219154      -0.85930076      -1.16057922       0.00000000
Si       1.23605262       1.62643921      -1.57298909       0.00000000
Si       0.92597247      -1.50567885      -2.91370242       0.00000000
Si      -1.24383924      -0.67720788      -3.35760403       0.00000000
Si      -2.83048524       2.45529070      -0.03266185       0.00000000
Si      -0.04945644       2.61968938       2.72753224       0.00000000
Si       2.75328693       2.59688338      -0.04297503       0.00000000
Si       2.66898618      -0.09648404       2.73012089       0.00000000
