10
Lattice="16.28999089631971 0.0 0.0 0.0 16.28999089631971 0.0 0.0 0.0 34.51530692428229" Properties=species:S:1:pos:R:3:initial_magmoms:R:1 pbc="T T T"
Si      -1.36287583       1.35871632       1.34795465       0.00000000
Si       1.38175201      -1.35136953       1.36172626       0.00000000
Si      -0.95057852      -1.73582982      -1.30368771       0.00000000
Si       0.75530377       1.87838361      -1.27019403       0.00000000
Si       0.17189860       0.66534876      -3.25059962       0.00000000
Si       1.95631660      -0.82846053      -3.06580456       0.00000000
Si      -2.61668455      -2.73196332      -0.04314071       0.00000000
Si       2.57927878      -2.78435196      -0.08759299       0.00000000
Si      -2.63683528       2.76682392      -0.27603977       0.00000000
Si      -2.70360799       0.00490329       2.72788429       0.00000000
