10
Lattice="16.28999089631971 0.0 0.0 0.0 16.28999089631971 0.0 0.0 0.0 34.51530692428229" Properties=species:S:1:pos:R:3:initial_magmoms:R:1 pbc="T T T"
Si       1.35716877       1.35260757      -1.38489295       0.00000000
Si      -1.35449721      -1.36448298      -1.38313267       0.00000000
Si       1.55554417      -1.24346457       1.37671282       0.00000000
Si      -1.43373177       1.34920296       1.49413396       0.00000000
Si      -2.71122615       2.71595025      -0.01325389       0.00000000
Si       2.71884077       2.70940167       0.00062128       0.00000000
Si      -2.71788876      -2.72253630       0.00962978       0.00000000
Si       2.72195216      -2.72906370      -0.02302172       0.00000000
Si       0.00166158       2.71215468      -2.74672966       0.00000000
Si      -2.71479366      -0.00360009      -2.74648805       0.00000000
