10
Lattice="16.28999089631971 0.0 0.0 0.0 16.28999089631971 0.0 0.0 0.0 34.51530692428229" Properties=species:S:1:pos:R:3:initial_magmoms:R:1 pbc="T T T"
Si      -1.35689740      -1.35762489       1.35721166       0.00000000
Si       1.35844753       1.35664749       1.35724617       0.00000000
Si       1.35949986      -1.35496962      -1.36028352       0.00000000
Si      -1.35948751       1.35803214      -1.35772939       0.00000000
Si      -2.71463632       2.71283886       0.00048321       0.00000000
Si       2.71510479       2.71388142       0.00120804       0.00000000
Si       0.00048725       2.71472850       2.71438880       0.00000000
Si      -2.71411504      -0.00043983       2.71501008       0.00000000
Si      -2.71422907      -2.71565703       0.00013806       0.00000000
Si       0.00087894      -2.71564074       2.71445783       0.00000000
