10
Lattice="16.28999089631971 0.0 0.0 0.0 16.28999089631971 0.0 0.0 0.0 34.51530692428229" Properties=species:S:1:pos:R:3:initial_magmoms:R:1 pbc="T T T"
Si      -2.24349138      -0.48878145      -0.34836319       0.00000000
Si       0.51192954       1.03702140       2.02898345       0.00000000
Si      -0.08493606       1.07390196      -2.14243533       0.00000000
Si       1.40763519      -1.92876858      -0.62959407       0.00000000
Si      -2.25132687       0.14825529      -2.66458318       0.00000000
Si       0.31776903      -0.81094878       3.40441920       0.00000000
Si      -0.11194488      -3.54061521       0.51358805       0.00000000
Si       0.74787390      -0.93739176      -3.38892182       0.00000000
Si      -1.06971543      -2.46896127       2.47592241       0.00000000
Si      -2.97857763      -1.35690813       1.65932431       0.00000000
