10
Lattice="16.28999089631971 0.0 0.0 0.0 16.28999089631971 0.0 0.0 0.0 34.51530692428229" Properties=species:S:1:pos:R:3:initial_magmoms:R:1 pbc="T T T"
Si       2.00059119       0.42318162      -1.07877652       0.00000000
Si      -0.71319249       1.35417141       1.73777764       0.00000000
Si      -1.75448187      -0.18046062      -1.53952161       0.00000000
Si       0.46134909      -2.07423828       0.99386882       0.00000000
Si      -2.34095445      -2.48815089      -1.24044631       0.00000000
Si      -0.36942462      -3.60795807      -0.51914502       0.00000000
Si      -0.34094970       0.08101017       3.66821984       0.00000000
Si      -0.80580114      -2.10285981       2.97045800       0.00000000
Si      -3.58656930       0.89977815      -0.49698618       0.00000000
Si      -3.00177459       1.72488294       1.57455467       0.00000000
