10
Lattice="16.28999089631971 0.0 0.0 0.0 16.28999089631971 0.0 0.0 0.0 34.51530692428229" Properties=species:S:1:pos:R:3:initial_magmoms:R:1 pbc="T T T"
Si      -0.23578146      -1.08064602      -2.05291400       0.00000000
Si       1.71385461       1.12267422       1.12500324       0.00000000
Si      -1.16725995      -1.64485017       1.20624197       0.00000000
Si      -0.05639598       2.50411509      -1.62668424       0.00000000
Si       1.00478349       0.77827104      -2.88014283       0.00000000
Si      -2.38397634      -0.16097778       2.63613600       0.00000000
Si      -2.55409281      -0.56361771      -2.44866673       0.00000000
Si       0.34511994       2.54497041       2.63744413       0.00000000
Si       0.33391242      -2.88101682       2.61962041       0.00000000
Si      -2.86477569      -2.70339066      -0.16613369       0.00000000
