10
Lattice="16.28999089631971 0.0 0.0 0.0 16.28999089631971 0.0 0.0 0.0 34.51530692428229" Properties=species:S:1:pos:R:3:initial_magmoms:R:1 pbc="T T T"
Si      -1.71385461      -1.12267422      -1.12500324       0.00000000
Si       1.80273189       0.92167191      -1.19680655       0.00000000
Si       1.33728697      -1.29453372       1.49887636       0.00000000
Si      -1.36873467       1.42229619       1.51244089       0.00000000
Si      -1.77025059       1.38144087      -2.75168748       0.00000000
Si       2.65173900       2.74731406       0.14607922       0.00000000
Si       2.76864093      -2.69930187      -0.04544633       0.00000000
Si       1.61077379      -0.44444007      -3.52731589       0.00000000
Si      -0.02461419      -2.64104883       2.88554340       0.00000000
Si       2.68762261       0.07784991       2.88640628       0.00000000
