10
Lattice="16.28999089631971 0.0 0.0 0.0 16.28999089631971 0.0 0.0 0.0 34.51530692428229" Properties=species:S:1:pos:R:3:initial_magmoms:R:1 pbc="T T T"
Si      -1.48986587      -1.26429948       1.42365366       0.00000000
Si       1.34940686      -1.33048575      -1.50507531       0.00000000
Si      -1.36360208       1.37502261      -1.51377318       0.00000000
Si       1.16822785       1.57366287       1.52965023       0.00000000
Si      -2.32267583       0.74699424       2.67014015       0.00000000
Si       2.62025492       2.64736935      -0.19625414       0.00000000
Si       2.83073801      -2.51519229       0.07966137       0.00000000
Si      -2.83108673       2.64324798      -0.10610011       0.00000000
Si      -2.80316567      -2.69068446      -0.01156263       0.00000000
Si      -0.66393029       2.70585045       2.75746393       0.00000000
