10
Lattice="16.28999089631971 0.0 0.0 0.0 16.28999089631971 0.0 0.0 0.0 34.51530692428229" Properties=species:S:1:pos:R:3:initial_magmoms:R:1 pbc="T T T"
Si       1.34636850      -1.26250758      -1.43984135       0.00000000
Si       1.67306445       1.13955785       1.28862970       0.00000000
Si      -0.79690680      -1.92107970       1.21497400       0.00000000
Si      -1.37380086       1.45504139      -1.39662816       0.00000000
Si      -0.11991069       1.56164315       3.02485416       0.00000000
Si       2.64420909      -2.54798406       0.05643256       0.00000000
Si      -2.72339478      -2.64738564      -0.05964248       0.00000000
Si      -0.01026270      -2.61350244      -2.79532724       0.00000000
Si       3.45622228      -0.83942370       1.50659399       0.00000000
Si       2.70177606       0.10120977      -2.79632818       0.00000000
