10
Lattice="16.28999089631971 0.0 0.0 0.0 16.28999089631971 0.0 0.0 0.0 34.51530692428229" Properties=species:S:1:pos:R:3:initial_magmoms:R:1 pbc="T T T"
Si       0.23578146       1.08064602       2.05291400       0.00000000
Si       1.24056495       1.85891706      -0.82722882       0.00000000
Si      -2.31831135       0.51702831      -0.39575273       0.00000000
Si       0.03319902      -2.42491311      -0.40296643       0.00000000
Si      -0.93147849      -0.56420415       3.25915597       0.00000000
Si       0.17938548       3.58476111       0.42622976       0.00000000
Si      -2.62899423      -1.62274464       1.88678031       0.00000000
Si      -2.29032513      -2.87440308      -0.59086787       0.00000000
Si      -3.05106813      -1.16282907      -1.93713817       0.00000000
Si       1.37321442      -2.66155794      -2.44154515       0.00000000
