10
Lattice="16.28999089631971 0.0 0.0 0.0 16.28999089631971 0.0 0.0 0.0 34.51530692428229" Properties=species:S:1:pos:R:3:initial_magmoms:R:1 pbc="T T T"
Si       1.35508691      -1.35783666       1.36194026       0.00000000
Si      -1.36050894       1.35645201       1.36028352       0.00000000
Si       1.36616411       1.35485559      -1.37769650       0.00000000
Si      -1.37877324      -1.35987291      -1.37692681       0.00000000
Si       2.71080587       2.71443528       0.00096643       0.00000000
Si       2.71175069      -2.71476108       0.00113901       0.00000000
Si      -2.71426002       2.71438641      -0.00151867       0.00000000
Si       2.71331453       0.00034209       2.71790936       0.00000000
Si      -0.00157036      -2.71507059       2.71797839       0.00000000
Si      -2.71950540      -2.71368594       0.00300283       0.00000000
