10
Lattice="16.28999089631971 0.0 0.0 0.0 16.28999089631971 0.0 0.0 0.0 34.51530692428229" Properties=species:S:1:pos:R:3:initial_magmoms:R:1 pbc="T T T"
Si      -0.31739436       1.02051963      -2.07747748       0.00000000
Si       2.32143903      -0.45491454       0.07013514       0.00000000
Si      -0.82381788       1.79253531       1.45996378       0.00000000
Si      -1.08064602      -2.20384152       0.26745926       0.00000000
Si       2.08080315      -1.46191347       2.27273069       0.00000000
Si      -2.65854592      -1.78712703      -1.55277550       0.00000000
Si      -1.20651885      -0.71342055      -3.27867987       0.00000000
Si      -1.03252536       0.83829969       3.59000811       0.00000000
Si       0.14344974      -1.20993975       3.65227376       0.00000000
Si       3.53220957       1.74894327       0.05836542       0.00000000
