10
Lattice="16.28999089631971 0.0 0.0 0.0 16.28999089631971 0.0 0.0 0.0 34.51530692428229" Properties=species:S:1:pos:R:3:initial_magmoms:R:1 pbc="T T T"
Si      -0.64233099       0.83882097      -2.12997530       0.00000000
Si      -2.23462147      -0.70191981       0.49370723       0.00000000
Si      -0.07123617       1.66755843       1.71841455       0.00000000
Si       1.98729855      -1.25582868       0.47203160       0.00000000
Si      -0.80868447       2.97483093      -1.22484538       0.00000000
Si      -1.92847210       2.72008791       0.82912717       0.00000000
Si       1.49467266       3.09801591      -0.77973573       0.00000000
Si      -2.05243411      -1.40271561       2.68222052       0.00000000
Si       1.12407516      -3.35041317       1.05827442       0.00000000
Si       1.00240515       0.46864701      -3.66866854       0.00000000
