10
Lattice="16.28999089631971 0.0 0.0 0.0 16.28999089631971 0.0 0.0 0.0 34.51530692428229" Properties=species:S:1:pos:R:3:initial_magmoms:R:1 pbc="T T T"
Si       1.20502017       1.55210373       1.36345893       0.00000000
Si      -1.18065033       1.47790115      -1.48840441       0.00000000
Si      -1.79046811      -0.81003654       1.44746924       0.00000000
Si       1.51814655      -1.22847777      -1.47767015       0.00000000
Si      -2.60248130      -2.51859690      -0.00269220       0.00000000
Si      -0.24242778       3.60739511       0.91186040       0.00000000
Si      -2.34705831       2.96350028      -0.08866987       0.00000000
Si      -2.54491433       0.13059693      -2.85545294       0.00000000
Si       2.80227096      -2.62208727      -0.04756212       0.00000000
Si       0.17050743      -2.58460398      -2.85020661       0.00000000
