10
Lattice="10.86 0.0 0.0 0.0 10.86 0.0 0.0 0.0 10.86" Properties=species:S:1:pos:R:3:initial_magmoms:R:1 pbc="T T T"
Si       1.35750000       1.35750000       1.35750000       0.00000000
Si      -1.35750000      -1.35750000       1.35750000       0.00000000
Si       1.35750000      -1.35750000      -1.35750000       0.00000000
Si      -1.35750000       1.35750000      -1.35750000       0.00000000
Si      -2.66490282      -0.05040126      -2.56678272       0.00000000
Si       0.06315090       2.61407802      -2.68766538       0.00000000
Si       0.15787182       2.76669360       2.57296206       0.00000000
Si       0.00000000      -2.71500000      -2.71500000       0.00000000
Si       0.00000000      -2.71500000       2.71500000       0.00000000
Si       2.71500000       2.71500000       0.00000000       0.00000000
