10
Lattice="10.86 0.0 0.0 0.0 10.86 0.0 0.0 0.0 10.86" Properties=species:S:1:pos:R:3:initial_magmoms:R:1 pbc="T T T"
Si      -1.42645014      -1.24418676       1.28188182       0.00000000
Si       1.28854986      -1.24418676      -1.43311818       0.00000000
Si      -1.42645014       1.47081324      -1.43311818       0.00000000
Si       1.44512934       1.58911122       1.29998544       0.00000000
Si      -0.06895014      -2.60168676       2.63938182       0.00000000
Si       2.64604986      -2.60168676      -0.07561818       0.00000000
Si       0.01531260       2.75463900       2.50396848       0.00000000
Si      -2.78395014      -2.60168676      -0.07561818       0.00000000
Si      -0.06895014      -2.60168676      -2.79061818       0.00000000
Si       2.70687672       0.19627278      -2.69705928       0.00000000
