10
Lattice="10.86 0.0 0.0 0.0 10.86 0.0 0.0 0.0 10.86" Properties=species:S:1:pos:R:3:initial_magmoms:R:1 pbc="T T T"
Si       1.19962818      -1.40919360      -1.21546206       0.00000000
Si       1.19962818       1.30580640       1.49953794       0.00000000
Si      -1.51537182       1.30580640      -1.21546206       0.00000000
Si       2.55712818      -0.05169360      -2.57296206       0.00000000
Si       2.55712818       2.66330640       0.14203794       0.00000000
Si      -0.15787182       2.66330640      -2.57296206       0.00000000
Si       2.55712818      -2.76669360       0.14203794       0.00000000
Si      -0.15787182      -2.76669360      -2.57296206       0.00000000
Si      -0.16886214      -2.66113440       2.71217640       0.00000000
Si       2.55712818      -0.05169360       2.85703794       0.00000000
