10
Lattice="10.86 0.0 0.0 0.0 10.86 0.0 0.0 0.0 10.86" Properties=species:S:1:pos:R:3:initial_magmoms:R:1 pbc="T T T"
Si       1.42981674      -1.16552778      -1.20398304       0.00000000
Si      -1.44176274       1.43117424      -1.22208666       0.00000000
Si       1.27323726       1.43117424       1.49291334       0.00000000
Si      -1.44176274      -1.28382576       1.49291334       0.00000000
Si      -0.01531260      -2.75463900      -2.50396848       0.00000000
Si       2.64825444       2.71124244       0.15609078       0.00000000
Si      -2.79926274       0.07367424      -2.57958666       0.00000000
Si       2.68083444      -2.69172702       0.28363062       0.00000000
Si      -2.79926274      -2.64132576       0.13541334       0.00000000
Si       2.63073726       0.07367424       2.85041334       0.00000000
