10
Lattice="10.86 0.0 0.0 0.0 10.86 0.0 0.0 0.0 10.86" Properties=species:S:1:pos:R:3:initial_magmoms:R:1 pbc="T T T"
Si       1.24451256       1.42831806      -1.28150172       0.00000000
Si       1.24451256      -1.28668194       1.43349828       0.00000000
Si      -1.47048744      -1.28668194      -1.28150172       0.00000000
Si       2.60201256       0.07081806      -2.63900172       0.00000000
Si       2.60201256      -2.64418194       0.07599828       0.00000000
Si      -0.11298744      -2.64418194      -2.63900172       0.00000000
Si       2.60201256       2.78581806       0.07599828       0.00000000
Si       2.60201256       0.07081806       2.79099828       0.00000000
Si      -0.11298744       2.78581806      -2.63900172       0.00000000
Si      -0.11298744      -2.64418194       2.79099828       0.00000000
