10
Lattice="16.2900001489832 0.0 0.0 0.0 16.2900001489832 0.0 0.0 0.0 29.33048724650998" Properties=species:S:1:pos:R:3:initial_magmoms:R:1 pbc="T T T"
Si      -1.32632367       1.38368890      -1.37729515       0.00000000
Si       1.33682583       1.37617921       1.38683050       0.00000000
Si      -1.36957362      -1.33041572       1.40123176       0.00000000
Si       1.36504011      -1.34936261      -1.39934581       0.00000000
Si       2.71245607       0.12336417      -2.69107514       0.00000000
Si      -2.69170261      -2.72065385      -0.01659519       0.00000000
Si      -2.68828171       2.73372266       0.01471217       0.00000000
Si       0.02683989      -2.65921253       2.76850176       0.00000000
Si      -2.66080048       0.04913064      -2.77636819       0.00000000
Si       2.74174549       0.01150074       2.70409201       0.00000000
