10
Lattice="16.2900001489832 0.0 0.0 0.0 16.2900001489832 0.0 0.0 0.0 29.33048724650998" Properties=species:S:1:pos:R:3:initial_magmoms:R:1 pbc="T T T"
Si      -0.67183219       0.02573820      -2.27739501       0.00000000
Si       2.28742064      -0.64700623      -0.22514082       0.00000000
Si      -1.35523027      -1.80538814       0.80230615       0.00000000
Si       0.51702831       2.03131415       1.35609508       0.00000000
Si       2.73417553       0.63386020      -2.20028516       0.00000000
Si      -1.45039645      -1.25879347       3.09993920       0.00000000
Si       1.82159229       1.03672819       3.03071925       0.00000000
Si      -0.03422529      -2.08412633      -3.23650195       0.00000000
Si       0.85299328       1.31354416      -3.57708756       0.00000000
Si       3.50891490       0.06548580       1.72234487       0.00000000
