10
Lattice="16.2900001489832 0.0 0.0 0.0 16.2900001489832 0.0 0.0 0.0 29.33048724650998" Properties=species:S:1:pos:R:3:initial_magmoms:R:1 pbc="T T T"
Si       1.38870296      -1.37124334       1.35720964       0.00000000
Si      -1.35384285       1.25850025       1.49828928       0.00000000
Si       0.82412414       1.95900935      -1.10001059       0.00000000
Si      -1.18845162      -1.41564988      -1.53457109       0.00000000
Si      -2.42237515       0.24215085      -2.71248346       0.00000000
Si      -2.62865542       2.69225647       0.13011004       0.00000000
Si       1.31648939       1.32727256      -3.29624815       0.00000000
H        3.41666137       1.14626215      -1.24631106       0.00000000
Si      -2.63590447      -2.81691570      -0.17017549       0.00000000
Si       0.01299616      -2.70313004       2.79034124       0.00000000
