10
Lattice="16.2900001489832 0.0 0.0 0.0 16.2900001489832 0.0 0.0 0.0 29.33048724650998" Properties=species:S:1:pos:R:3:initial_magmoms:R:1 pbc="T T T"
Si      -1.34043895       1.36449928      -1.42651758       0.00000000
Si       1.36212094       1.37725435       1.39880027       0.00000000
Si       1.33512841      -1.32743790      -1.47849120       0.00000000
Si      -1.40281336      -1.37288049       1.38351908       0.00000000
Si       2.71994132      -2.65958704      -0.11048795       0.00000000
Si       2.69096141       2.71933859      -0.07271028       0.00000000
Si      -2.73895176      -2.70627401      -0.04886459       0.00000000
Si      -2.71283888       2.74603791      -0.08347457       0.00000000
Si       2.64049499      -0.02805138       2.85989849       0.00000000
Si      -2.68185530       0.00568521      -2.84034385       0.00000000
