10
Lattice="16.2900001489832 0.0 0.0 0.0 16.2900001489832 0.0 0.0 0.0 29.33048724650998" Properties=species:S:1:pos:R:3:initial_magmoms:R:1 pbc="T T T"
Si       1.33522615       1.28440673       1.49620682       0.00000000
Si      -1.82888320      -0.94670427       1.20372320       0.00000000
Si      -1.26744672       1.39583522      -1.46227144       0.00000000
Si       1.37933947      -1.41150685      -1.35852951       0.00000000
Si      -3.46434546       0.83878726       1.09722420       0.00000000
Si       2.69133608       2.62303749       0.00994304       0.00000000
Si      -2.59413382       2.76350616      -0.02337640       0.00000000
Si      -2.70958088      -2.66207387      -0.17366582       0.00000000
Si      -2.65047865       0.00608122      -2.84276948       0.00000000
Si       2.74439262      -0.07745357      -2.79718991       0.00000000
