10
Lattice="16.2900001489832 0.0 0.0 0.0 16.2900001489832 0.0 0.0 0.0 29.33048724650998" Properties=species:S:1:pos:R:3:initial_magmoms:R:1 pbc="T T T"
Si       1.37899738      -1.33827238      -1.37779377       0.00000000
Si       1.38557854       1.35708733       1.35432352       0.00000000
Si      -1.37321443      -1.35065278       1.39230650       0.00000000
Si      -1.35283564       1.36907677      -1.39915223       0.00000000
Si      -0.03214017       2.72113049       2.65219758       0.00000000
Si       2.69032610      -2.71052570       0.04880006       0.00000000
Si       0.00294849      -2.73870740      -2.66955536       0.00000000
Si       2.71953407       2.72088614      -0.05293566       0.00000000
Si      -2.76280032      -2.67827150       0.02556739       0.00000000
Si      -2.73712728       2.76082923      -0.07087126       0.00000000
