10
Lattice="16.2900001489832 0.0 0.0 0.0 16.2900001489832 0.0 0.0 0.0 29.33048724650998" Properties=species:S:1:pos:R:3:initial_magmoms:R:1 pbc="T T T"
Si       1.38438937       1.32804226       1.38319645       0.00000000
Si       1.44296821      -1.39067731      -1.27540691       0.00000000
Si      -1.31577589      -1.37191123       1.44847438       0.00000000
Si      -1.43229826       1.32133078      -1.39912290       0.00000000
Si       0.02868669      -2.68736132      -2.62721973       0.00000000
Si       2.71293662       2.63072099      -0.10101420       0.00000000
Si      -2.72054405       2.69900867       0.01120425       0.00000000
Si      -2.76825747      -0.15664464      -2.67212471       0.00000000
Si       0.02476080       2.68724729       2.77333249       0.00000000
Si      -2.69182478      -2.77234626       0.15671279       0.00000000
