10
Lattice="16.2900001489832 0.0 0.0 0.0 16.2900001489832 0.0 0.0 0.0 29.33048724650998" Properties=species:S:1:pos:R:3:initial_magmoms:R:1 pbc="T T T"
Si      -1.33522615      -1.28440673      -1.49620682       0.00000000
Si      -1.35493705       1.49292964       1.28869362       0.00000000
Si       1.35610993       1.33863076      -1.48626378       0.00000000
Si       0.82352467      -1.20810876       1.94197156       0.00000000
Si       2.29506554       0.44266446       2.86019179       0.00000000
Si      -1.25708302      -1.66392578       3.07565355       0.00000000
Si      -3.16410936      -2.23111100      -0.29248362       0.00000000
Si       2.67682169       2.81975016      -0.20191107       0.00000000
Si      -2.58844519       2.92322424      -0.11371430       0.00000000
Si      -2.76998095       0.20666797       2.76700884       0.00000000
