10
Lattice="16.2900001489832 0.0 0.0 0.0 16.2900001489832 0.0 0.0 0.0 29.33048724650998" Properties=species:S:1:pos:R:3:initial_magmoms:R:1 pbc="T T T"
Si      -1.33959187       1.31026987      -1.45147782       0.00000000
Si      -1.47222505      -1.33802803       1.30767044       0.00000000
Si       1.36119241      -1.43611012      -1.33615035       0.00000000
Si       1.35832537       1.37510407       1.43604999       0.00000000
Si       2.52799625      -0.15061734       2.81959840       0.00000000
Si      -2.66190005       2.72010422      -0.09989964       0.00000000
Si       2.78133834       2.66810654       0.03287948       0.00000000
Si       0.03538188       2.69329088      -2.79070787       0.00000000
Si       2.63956646      -2.84141586       0.12494788       0.00000000
Si      -2.73564489       0.08320932       2.75161033       0.00000000
