10
Lattice="16.2900001489832 0.0 0.0 0.0 16.2900001489832 0.0 0.0 0.0 29.33048724650998" Properties=species:S:1:pos:R:3:initial_magmoms:R:1 pbc="T T T"
Si       2.34398441      -0.40683461       0.20877441       0.00000000
Si      -1.65701882      -0.64985209       1.63435341       0.00000000
Si      -0.79578280      -1.27832029      -1.91140919       0.00000000
Si      -0.35914563       2.41488175       0.23998205       0.00000000
H        1.93389995       1.79701833       2.06266652       0.00000000
Si       2.52260426       0.43626575       2.41096605       0.00000000
Si      -2.73388556       2.35055254      -0.25966280       0.00000000
Si      -3.13993011       1.25063544       1.84858329       0.00000000
Si      -3.13460328      -2.22657912       0.65559505       0.00000000
Si      -1.91563886       0.08188494      -3.42844065       0.00000000
