10
Lattice="16.2900001489832 0.0 0.0 0.0 16.2900001489832 0.0 0.0 0.0 29.33048724650998" Properties=species:S:1:pos:R:3:initial_magmoms:R:1 pbc="T T T"
H       -0.58870432       1.36075258      -0.34829954       0.00000000
Si       2.21943107       0.37662480       0.62916828       0.00000000
Si      -0.17861985      -0.84310036      -2.20219164       0.00000000
Si      -1.30204342      -0.84419016       1.81453059       0.00000000
H        2.31487418       0.91144180       2.05923485       0.00000000
Si       0.59224413       2.81579169       2.01960936       0.00000000
Si      -2.52260426      -0.43626575      -2.41096605       0.00000000
Si       1.70139278      -3.12974886       1.37351739       0.00000000
Si       3.42166566      -1.65298867       0.43875476       0.00000000
Si       0.00446346      -2.46682730       2.96748272       0.00000000
