10
Lattice="16.2900001489832 0.0 0.0 0.0 16.2900001489832 0.0 0.0 0.0 29.33048724650998" Properties=species:S:1:pos:R:3:initial_magmoms:R:1 pbc="T T T"
Si       1.28824579      -1.37767789      -1.41032715       0.00000000
Si       1.39036780       1.34491870       1.36351862       0.00000000
Si      -1.32706486      -1.36357075       1.41591167       0.00000000
Si      -1.37777563       1.29184588      -1.44930737       0.00000000
Si       2.74312200       2.61104267      -0.11611940       0.00000000
Si       2.72054405      -2.69900867      -0.01120425       0.00000000
Si      -2.70878267      -2.71508690       0.03818829       0.00000000
Si      -2.69267186       2.74344780      -0.07895767       0.00000000
Si      -2.71135649       0.02818170       2.74419265       0.00000000
Si       0.02094894       2.72906372       2.72938369       0.00000000
