10
Lattice="16.2900001489832 0.0 0.0 0.0 16.2900001489832 0.0 0.0 0.0 29.33048724650998" Properties=species:S:1:pos:R:3:initial_magmoms:R:1 pbc="T T T"
Si      -1.39036780      -1.34491870      -1.36351862       0.00000000
Si       1.35275419       1.26612397      -1.47963802       0.00000000
Si       1.35493705      -1.35668008       1.39860962       0.00000000
Si      -1.36941886       1.38414502       1.36586506       0.00000000
Si       2.68262093       2.66429468      -0.04133252       0.00000000
Si      -2.71743266      -2.70848945       0.05239305       0.00000000
Si       2.71456562      -2.71588511       0.00847358       0.00000000
Si      -2.71793765       2.74263330      -0.04254974       0.00000000
Si      -0.02668302       2.67015908      -2.81493779       0.00000000
Si      -0.10212201      -2.72259659      -2.77384577       0.00000000
