10
Lattice="16.2900001489832 0.0 0.0 0.0 16.2900001489832 0.0 0.0 0.0 29.33048724650998" Properties=species:S:1:pos:R:3:initial_magmoms:R:1 pbc="T T T"
Si      -2.33032199       0.35891757      -0.15768070       0.00000000
Si       0.32360411      -0.48969369       2.31003985       0.00000000
Si       1.47303467       1.74421919      -0.70692340       0.00000000
H        1.72263005      -1.90434989       0.03962549       0.00000000
H       -1.18094845      -1.45503910      -2.36790890       0.00000000
Si       0.43807883       3.07690410       0.87853608       0.00000000
Si       1.62718694      -2.43916688      -1.39044108       0.00000000
Si      -0.00867605       1.79603768       2.85368043       0.00000000
Si      -0.59224413      -2.81579169      -2.01960936       0.00000000
Si      -2.94844604      -1.73923445       0.84873631       0.00000000
