10
Lattice="16.2900001489832 0.0 0.0 0.0 16.2900001489832 0.0 0.0 0.0 29.33048724650998" Properties=species:S:1:pos:R:3:initial_magmoms:R:1 pbc="T T T"
H       -1.15613389       0.73340839      -0.69519121       0.00000000
Si       1.47758446       1.57672703       0.97875836       0.00000000
Si      -1.34677576      -0.73432063       1.81168554       0.00000000
Si       0.87926905      -0.81783946      -2.07888628       0.00000000
Si      -2.33956982      -2.47968011       0.69014636       0.00000000
Si       2.33882048       0.94825883      -2.56700424       0.00000000
Si      -0.00532683       3.47721456       1.19298824       0.00000000
Si      -3.13077513       0.91782960       1.90284469       0.00000000
Si       2.39562371       0.56858617       2.95055903       0.00000000
Si      -3.28114812      -1.55766610      -1.27388172       0.00000000
