10
Lattice="16.2900001489832 0.0 0.0 0.0 16.2900001489832 0.0 0.0 0.0 29.33048724650998" Properties=species:S:1:pos:R:3:initial_magmoms:R:1 pbc="T T T"
Si      -0.60898537      -0.39534201       2.24246240       0.00000000
Si       1.13660218       2.09963441       0.24147790       0.00000000
Si      -2.24466428       0.50839461      -0.77130382       0.00000000
Si       1.16929621      -1.96273325      -1.15040037       0.00000000
Si      -0.32050575       0.74282401      -3.45255031       0.00000000
Si      -0.83152306       3.62542098       0.23945410       0.00000000
Si       2.95533183       2.06423624      -1.35559646       0.00000000
Si      -3.21006182      -1.44906067      -1.63620123       0.00000000
Si      -2.43532244      -2.01743507       2.28642880       0.00000000
Si      -2.20283156       1.90514810      -2.64153301       0.00000000
