10
Lattice="16.2900001489832 0.0 0.0 0.0 16.2900001489832 0.0 0.0 0.0 29.33048724650998" Properties=species:S:1:pos:R:3:initial_magmoms:R:1 pbc="T T T"
Si       0.58870432      -1.36075258       0.34829954       0.00000000
Si       0.41008446      -2.20385294      -1.85389211       0.00000000
Si      -2.29304558       0.61786342      -1.82268447       0.00000000
Si       1.18094845       1.45503910       2.36790890       0.00000000
Si      -1.97232806       2.29459313      -0.00281573       0.00000000
Si      -1.14937354       1.81395668       2.21022820       0.00000000
Si       2.80813539      -0.98412778       0.97746782       0.00000000
Si      -0.71333911      -2.20494274       2.16283013       0.00000000
Si      -1.93389995      -1.79701833      -2.06266652       0.00000000
Si      -1.76749760      -0.28419534       3.21664521       0.00000000
