10
Lattice="16.2900001489832 0.0 0.0 0.0 16.2900001489832 0.0 0.0 0.0 29.33048724650998" Properties=species:S:1:pos:R:3:initial_magmoms:R:1 pbc="T T T"
Si       1.33400440      -1.32589198       1.44352926       0.00000000
Si      -1.38256489       1.32784678       1.40044277       0.00000000
Si       1.36752922       1.37870416      -1.37508070       0.00000000
Si      -1.34462548      -1.39093795      -1.38762242       0.00000000
Si       2.68623731      -2.68543422       0.01143889       0.00000000
Si      -2.71287146       2.72821664       0.01856620       0.00000000
Si       2.70901073       2.74137897       0.01531051       0.00000000
Si      -2.74488132      -0.02293632      -2.70778765       0.00000000
Si      -2.73839790      -2.71892972      -0.00533815       0.00000000
Si      -0.04160466       2.69848739       2.77918099       0.00000000
