10
Lattice="16.2900001489832 0.0 0.0 0.0 16.2900001489832 0.0 0.0 0.0 29.33048724650998" Properties=species:S:1:pos:R:3:initial_magmoms:R:1 pbc="T T T"
Si      -2.08373537       0.55223101       0.78922475       0.00000000
Si       1.39647655       0.20251728       1.96933691       0.00000000
Si       0.74487655       1.74474047      -1.54131710       0.00000000
Si      -0.27277605      -2.30257523      -0.86293227       0.00000000
Si       2.05455998      -2.36706734      -0.57212048       0.00000000
Si       2.41222322      -1.87998005       1.71662543       0.00000000
Si      -1.96949360       2.81977459       1.37938348       0.00000000
Si      -1.00393642      -1.79950745      -3.09721146       0.00000000
Si       1.73617193       3.32882081      -0.03581252       0.00000000
Si       2.15669828       0.54784900      -3.03981170       0.00000000
