10
Lattice="16.2900001489832 0.0 0.0 0.0 16.2900001489832 0.0 0.0 0.0 29.33048724650998" Properties=species:S:1:pos:R:3:initial_magmoms:R:1 pbc="T T T"
Si      -1.21648834      -1.43482321       1.45573074       0.00000000
Si      -0.57063871      -0.31003128      -2.29150298       0.00000000
Si      -0.18956673       2.30993831       0.57684269       0.00000000
Si       2.35442630      -0.30022470       0.56059360       0.00000000
Si       0.70224562       1.61241679      -3.03033795       0.00000000
Si       0.59442211       2.01481238       2.81449490       0.00000000
H       -1.27663102      -3.22830336      -0.96605826       0.00000000
Si       2.25926012       0.24636996       2.85822665       0.00000000
H       -2.26476614       1.03918798      -2.73351342       0.00000000
Si      -2.34049835      -2.88694641       0.02449096       0.00000000
