10
Lattice="16.2900001489832 0.0 0.0 0.0 16.2900001489832 0.0 0.0 0.0 29.33048724650998" Properties=species:S:1:pos:R:3:initial_magmoms:R:1 pbc="T T T"
Si       1.00106938      -0.69054940      -2.04905717       0.00000000
Si      -0.20416257       2.34681887      -0.38505064       0.00000000
Si       1.57201678      -0.88821226       1.58240912       0.00000000
Si      -2.44942958      -0.38059956       0.34777159       0.00000000
H       -1.48385611       1.60630804       2.33476545       0.00000000
H       -1.95981734      -1.52927263      -2.14364799       0.00000000
Si      -1.35107632       2.18009072      -2.45158878       0.00000000
Si      -3.12707730       0.79918741      -1.70333872       0.00000000
Si      -1.31183371       3.04813596       1.55929669       0.00000000
Si       0.17542701      -2.34025400       2.88268828       0.00000000
