10
Lattice="16.2900001489832 0.0 0.0 0.0 16.2900001489832 0.0 0.0 0.0 29.33048724650998" Properties=species:S:1:pos:R:3:initial_magmoms:R:1 pbc="T T T"
Si      -1.33835220      -1.19066869       1.53427779       0.00000000
Si      -1.15587814       1.37226961      -1.57654302       0.00000000
Si       1.37049400       1.41780016       1.37689039       0.00000000
Si       0.87739570      -1.93854260      -1.16571089       0.00000000
Si      -2.63626399      -2.58939326       0.18662989       0.00000000
Si      -2.54423820      -0.14276556      -2.78827344       0.00000000
Si      -2.52155682       2.82499554      -0.14454064       0.00000000
Si       2.70055622      -2.72969903       0.14286880       0.00000000
Si       0.65485801       2.08222040      -3.16871919       0.00000000
Si      -0.94894138      -3.56063565      -1.12174448       0.00000000
