10
Lattice="16.2900001489832 0.0 0.0 0.0 16.2900001489832 0.0 0.0 0.0 29.33048724650998" Properties=species:S:1:pos:R:3:initial_magmoms:R:1 pbc="T T T"
H        1.31758408       0.26702568       1.69756061       0.00000000
Si      -1.06715791      -2.02538459      -0.56519849       0.00000000
Si       1.99034480       0.03205872      -1.26590383       0.00000000
Si      -1.53204193       1.81372862      -0.00319702       0.00000000
H        3.08961030       0.23527647      -0.22948173       0.00000000
Si       0.85357972      -3.47231127      -0.84081708       0.00000000
Si       1.97540687       1.09584460       2.93052630       0.00000000
Si      -0.53924788       3.55908810       1.11834215       0.00000000
Si      -2.53824266      -2.49746879       1.31497373       0.00000000
Si      -2.12843513      -1.48959019      -2.77560267       0.00000000
