10
Lattice="16.2900001489832 0.0 0.0 0.0 16.2900001489832 0.0 0.0 0.0 29.33048724650998" Properties=species:S:1:pos:R:3:initial_magmoms:R:1 pbc="T T T"
Si      -1.38438937      -1.32804226      -1.38319645       0.00000000
Si      -1.35962857       1.35920503       1.39013604       0.00000000
Si       1.32659245      -1.35812989       1.43437815       0.00000000
Si       1.32854725       1.30267873      -1.48421065       0.00000000
Si       0.05857884      -2.71871957      -2.65860336       0.00000000
Si       2.69084738       2.70058880      -0.10036599       0.00000000
Si      -2.70016526      -2.69995349       0.06527793       0.00000000
Si       2.71057457      -2.70633917       0.07099444       0.00000000
Si      -2.71456562       2.71588511      -0.00847358       0.00000000
Si       2.67033827       0.01076769       2.81713464       0.00000000
