10
Lattice="16.2900001489832 0.0 0.0 0.0 16.2900001489832 0.0 0.0 0.0 29.33048724650998" Properties=species:S:1:pos:R:3:initial_magmoms:R:1 pbc="T T T"
Si      -1.32955723      -1.35237952      -1.41258560       0.00000000
Si       1.49126806      -1.30044700       1.31946130       0.00000000
Si       1.32926401       1.32727663      -1.48063233       0.00000000
Si      -1.37088496       1.41737662       1.35465788       0.00000000
Si      -2.62672994      -2.68263722       0.05194429       0.00000000
Si       2.68550426       2.71259453      -0.16486667       0.00000000
Si       2.77744503      -2.63780714      -0.14518591       0.00000000
Si      -2.68991885       2.74014093      -0.08013089       0.00000000
Si       2.77001679       0.17544330       2.72471427       0.00000000
Si      -2.67442706      -0.00084708      -2.83282645       0.00000000
