10
Lattice="16.2900001489832 0.0 0.0 0.0 16.2900001489832 0.0 0.0 0.0 29.33048724650998" Properties=species:S:1:pos:R:3:initial_magmoms:R:1 pbc="T T T"
Si      -0.91321741      -1.73828963      -1.32726321       0.00000000
Si       0.73116037      -0.50306778       2.23427920       0.00000000
Si       1.77911237       0.96646942      -1.30089510       0.00000000
Si      -1.84200806       1.62960274       0.02710137       0.00000000
Si       0.46007847       2.28923372      -2.73568388       0.00000000
Si      -2.32572332      -0.48133692      -2.75216761       0.00000000
Si       1.00393642       1.79950745       3.09721146       0.00000000
Si      -0.94993507       3.48068433      -1.24179417       0.00000000
Si      -2.17706078      -3.14276457       0.08027754       0.00000000
Si       3.16063470       2.34735644       0.05739976       0.00000000
