10
Lattice="16.2900001489832 0.0 0.0 0.0 16.2900001489832 0.0 0.0 0.0 29.33048724650998" Properties=species:S:1:pos:R:3:initial_magmoms:R:1 pbc="T T T"
Si      -1.04108739       0.37616868      -2.05351540       0.00000000
Si      -1.25658618      -1.21880152       1.56777320       0.00000000
Si       1.79910020      -1.35169534      -0.80699903       0.00000000
Si      -0.12888648       2.27980181       0.75150574       0.00000000
H        1.46455246       0.43184790       2.53623656       0.00000000
Si       0.04903290      -0.37892169       3.29853593       0.00000000
Si       0.48198852       2.28568250      -2.42481004       0.00000000
Si      -2.53364888       2.63269208       0.36853757       0.00000000
Si      -3.21088935       1.04624155      -1.45529079       0.00000000
Si       0.59517145      -2.93547432      -2.14655171       0.00000000
