10
Lattice="16.2900001489832 0.0 0.0 0.0 16.2900001489832 0.0 0.0 0.0 29.33048724650998" Properties=species:S:1:pos:R:3:initial_magmoms:R:1 pbc="T T T"
H        0.50648868       0.86092651       1.15309878       0.00000000
Si      -2.25746822      -0.24786864       0.77095186       0.00000000
Si       0.40604454       1.09991710      -2.10824609       0.00000000
Si       1.48291129      -1.90048753      -0.21422988       0.00000000
H        0.04430880       2.73494442       0.44415157       0.00000000
Si       2.78078448       1.16424631      -1.60860124       0.00000000
H        1.91589950      -0.02542869       2.87784875       0.00000000
H       -1.15080706      -2.74380618      -1.88817945       0.00000000
Si       0.00532683      -3.47721456      -1.19298824       0.00000000
H       -0.37276407      -1.83243117       3.17860356       0.00000000
