10
Lattice="16.2900001489832 0.0 0.0 0.0 16.2900001489832 0.0 0.0 0.0 29.33048724650998" Properties=species:S:1:pos:R:3:initial_magmoms:R:1 pbc="T T T"
Si       0.92390365       1.82272070       1.18072809       0.00000000
Si      -0.78398884       0.29512593      -2.23765220       0.00000000
Si      -1.80512750      -0.84725920       1.32746852       0.00000000
Si       1.66483802      -1.76844242       0.04373176       0.00000000
Si      -0.59442211      -2.01481238      -2.81449490       0.00000000
Si       2.22845573       0.53911755       2.67907604       0.00000000
Si      -0.55928458      -2.24095016       2.76545432       0.00000000
Si       1.76000420      -2.31503708      -2.25390129       0.00000000
Si      -2.97259923       1.16022268      -1.97942659       0.00000000
Si       2.26794269       3.02475981      -0.38238156       0.00000000
