10
Lattice="16.2900001489832 0.0 0.0 0.0 16.2900001489832 0.0 0.0 0.0 29.33048724650998" Properties=species:S:1:pos:R:3:initial_magmoms:R:1 pbc="T T T"
Si       0.47268693      -1.67760938       1.69805923       0.00000000
Si       2.20551941       0.61263433      -0.86800644       0.00000000
Si      -0.93996559      -0.84584197      -2.11311495       0.00000000
Si      -1.16929621       1.96273325       1.15040037       0.00000000
H        3.20204388      -0.58616308      -0.77731657       0.00000000
H       -1.53937243      -2.97540111      -0.00445823       0.00000000
H        2.04512807      -2.30304764      -2.06818065       0.00000000
Si       1.62372205      -0.32332392       3.32021116       0.00000000
Si      -1.48980196       2.70555725      -2.30214994       0.00000000
Si       1.87734107       1.45725454      -3.13100018       0.00000000
