10
Lattice="16.2900001489832 0.0 0.0 0.0 16.2900001489832 0.0 0.0 0.0 29.33048724650998" Properties=species:S:1:pos:R:3:initial_magmoms:R:1 pbc="T T T"
Si       1.44314740       1.18291465      -1.42854138       0.00000000
Si      -2.37473993      -0.06432921      -0.49964485       0.00000000
Si       0.35914563      -2.41488175      -0.23998205       0.00000000
Si       0.32071752       1.67672972       1.81986874       0.00000000
H        2.29304558      -0.61786342       1.82268447       0.00000000
H        1.38642562       2.58536963      -0.85586362       0.00000000
Si      -2.78078448      -1.16424631       1.60860124       0.00000000
H       -2.27429579      -0.30331980       2.76170002       0.00000000
Si      -1.29787318      -3.06473384       1.39437136       0.00000000
Si       0.38221227       1.33278265      -3.48073691       0.00000000
