10
Lattice="16.2900001489832 0.0 0.0 0.0 16.2900001489832 0.0 0.0 0.0 29.33048724650998" Properties=species:S:1:pos:R:3:initial_magmoms:R:1 pbc="T T T"
Si      -1.38836006      -1.51503517      -1.21173042       0.00000000
Si       1.15587814      -1.37226961       1.57654302       0.00000000
Si      -1.36567868       1.45272592       1.43200238       0.00000000
Si       1.81073614       0.70995079      -1.59217617       0.00000000
Si       0.39759492      -2.40707558      -2.60293409       0.00000000
Si       2.75700596       2.45200340      -0.34011633       0.00000000
Si       2.52637214       0.04553055       2.95343341       0.00000000
Si       2.03327384      -3.31081221       0.41083213       0.00000000
Si      -2.81313153       0.05146011       2.79639798       0.00000000
Si      -0.18247407      -2.56293830       3.11082081       0.00000000
