10
Lattice="16.2900001489832 0.0 0.0 0.0 16.2900001489832 0.0 0.0 0.0 29.33048724650998" Properties=species:S:1:pos:R:3:initial_magmoms:R:1 pbc="T T T"
Si       0.81893089       1.29287622      -1.76613529       0.00000000
Si      -0.49236525       0.63173679       2.19623755       0.00000000
Si       1.61774362      -1.74364496      -0.01044165       0.00000000
Si      -2.26047535       0.16862675      -0.83286852       0.00000000
H        2.54648540       0.03763218       1.42091545       0.00000000
H        2.10017198      -0.18101041       2.04993708       0.00000000
H        0.10015092       0.65760531      -2.94161323       0.00000000
Si       3.55693782      -0.63102166      -0.87035288       0.00000000
Si       0.67147381      -3.48569758      -1.26250149       0.00000000
Si      -1.31648939      -1.32727256       3.29624815       0.00000000
