10
Lattice="16.2900001489832 0.0 0.0 0.0 16.2900001489832 0.0 0.0 0.0 29.33048724650998" Properties=species:S:1:pos:R:3:initial_magmoms:R:1 pbc="T T T"
Si       1.46732160      -1.30484530       1.32793781       0.00000000
Si       1.36041049       1.30741912      -1.45452819       0.00000000
Si      -1.33766965      -1.37393119      -1.42663490       0.00000000
Si      -1.40118436       1.34483725       1.40982853       0.00000000
Si      -2.71327871       2.65044818      -0.09098317       0.00000000
Si       2.73243413       2.66848121      -0.10077955       0.00000000
Si      -2.71601543      -2.72463284      -0.03930285       0.00000000
Si       2.79400870      -2.67251625      -0.11095723       0.00000000
Si      -2.67167405      -0.04803921      -2.87016416       0.00000000
Si       2.80823638       0.13927950       2.73380672       0.00000000
