10
Lattice="16.2900001489832 0.0 0.0 0.0 16.2900001489832 0.0 0.0 0.0 29.33048724650998" Properties=species:S:1:pos:R:3:initial_magmoms:R:1 pbc="T T T"
Si      -1.03860154       1.72111997      -1.19468941       0.00000000
Si       1.32120046       1.24183558       1.50790968       0.00000000
Si      -1.37878724      -1.39297420       1.33538775       0.00000000
Si       1.43430193      -1.07033446      -1.55680360       0.00000000
Si       2.53390952      -2.50297481       0.00322635       0.00000000
Si       0.78773554       3.34321302      -1.23865581       0.00000000
Si       2.61089606       2.55205658       0.06992388       0.00000000
Si      -2.72592415       2.69236235       0.11368497       0.00000000
Si      -0.05017320       2.69262299       2.79144113       0.00000000
Si      -2.77904281      -0.07379370       2.72439164       0.00000000
