10
Lattice="16.2900001489832 0.0 0.0 0.0 16.2900001489832 0.0 0.0 0.0 29.33048724650998" Properties=species:S:1:pos:R:3:initial_magmoms:R:1 pbc="T T T"
Si       0.16017957       0.80962930       2.22946900       0.00000000
Si       0.12888648      -2.27980181      -0.75150574       0.00000000
Si      -2.40476240       0.35289027      -0.38296817       0.00000000
Si       1.75624121       1.19319364      -1.27660946       0.00000000
H       -0.95422260       2.63656910       0.20393488       0.00000000
H        1.59343894      -1.84795391       1.78473082       0.00000000
Si       0.61087501       0.00588069      -3.17631579       0.00000000
Si      -0.71102267       2.94275595       1.67195510       0.00000000
Si      -0.91220091      -1.90363313      -2.80502115       0.00000000
Si       0.17791938      -2.65872350       2.54703018       0.00000000
