10
Lattice="16.2900001489832 0.0 0.0 0.0 16.2900001489832 0.0 0.0 0.0 29.33048724650998" Properties=species:S:1:pos:R:3:initial_magmoms:R:1 pbc="T T T"
Si       1.47154087       1.65077323       0.91822023       0.00000000
Si       1.47084040      -1.90407947       0.02466694       0.00000000
Si      -2.08060769      -0.45581701       1.13368199       0.00000000
Si      -0.82352467       1.20810876      -1.94197156       0.00000000
Si      -2.17846172       2.70103841      -0.65327794       0.00000000
Si       3.12579039      -1.39024400       1.67855445       0.00000000
Si       2.36358128      -2.11237971      -2.18078039       0.00000000
Si       0.19989459       3.08240360       2.32350254       0.00000000
Si      -3.59350561       1.41477674       0.82503728       0.00000000
Si      -3.51078662      -1.90557815      -0.00299171       0.00000000
