10
Lattice="16.2900001489832 0.0 0.0 0.0 16.2900001489832 0.0 0.0 0.0 29.33048724650998" Properties=species:S:1:pos:R:3:initial_magmoms:R:1 pbc="T T T"
Si       1.36858807       1.31654152       1.35110890       0.00000000
Si      -1.13230162       1.47259972      -1.41293756       0.00000000
Si      -1.51405777      -0.90448597       1.64916531       0.00000000
Si       1.49885920      -1.42993296      -1.25138524       0.00000000
Si       0.25443351      -1.67795961       2.99965826       0.00000000
Si      -2.45301338      -0.00851967      -2.69729027       0.00000000
Si       2.25118028      -0.22719663       2.89227935       0.00000000
Si      -2.39572145       2.89383708       0.03100233       0.00000000
Si       2.86791969       2.66001041       0.09899039       0.00000000
Si       0.27005562      -2.81655732      -2.71873085       0.00000000
