10
Lattice="16.2900001489832 0.0 0.0 0.0 16.2900001489832 0.0 0.0 0.0 29.33048724650998" Properties=species:S:1:pos:R:3:initial_magmoms:R:1 pbc="T T T"
H       -0.24319993      -0.30618684      -1.46802022       0.00000000
Si      -2.25374107       0.23457600       0.59438232       0.00000000
Si       0.87120224      -2.13312665       0.55751390       0.00000000
Si       1.75703616       1.57286467      -0.35240580       0.00000000
Si      -2.71979797       1.26781813      -1.48042701       0.00000000
Si       2.19851145       0.67644226      -2.51503062       0.00000000
Si       0.71102267      -2.94275595      -1.67195510       0.00000000
Si       2.83229020      -1.44678007       1.57938808       0.00000000
Si      -2.89489918      -2.10178469       0.15234255       0.00000000
Si      -1.69373973      -2.58986567      -2.05492327       0.00000000
