10
Lattice="16.2900001489832 0.0 0.0 0.0 16.2900001489832 0.0 0.0 0.0 29.33048724650998" Properties=species:S:1:pos:R:3:initial_magmoms:R:1 pbc="T T T"
Si      -1.04782168      -0.49081982      -2.09586863       0.00000000
Si      -1.96172327      -0.26030003       1.38478029       0.00000000
Si       1.78399937      -1.65215022      -0.09115915       0.00000000
Si       0.86798008       2.31151632       0.06109540       0.00000000
H       -0.07007958      -2.09067703       2.18344946       0.00000000
H       -1.51933573       2.12641305      -1.78071254       0.00000000
H       -0.20771379       0.72829935      -3.13806883       0.00000000
H        1.97464124      -0.18442121      -2.59803590       0.00000000
Si      -0.79037452       3.36476257      -1.25030001       0.00000000
Si       0.79120531      -3.39750971      -1.21269833       0.00000000
