10
Lattice="16.2900001489832 0.0 0.0 0.0 16.2900001489832 0.0 0.0 0.0 29.33048724650998" Properties=species:S:1:pos:R:3:initial_magmoms:R:1 pbc="T T T"
Si       1.75484027       0.82536544      -1.38457498       0.00000000
Si      -0.93719629      -1.87546772      -1.17726710       0.00000000
Si       0.69967180      -0.52960419       2.24037994       0.00000000
Si      -1.61775991       1.78997780      -0.05341082       0.00000000
Si       2.86947375      -1.19967706       1.64215532       0.00000000
Si      -2.24929064      -0.56985679      -2.67807880       0.00000000
Si       0.52722585       2.24694488      -2.80622370       0.00000000
Si      -1.49224546       2.61861752       2.17547157       0.00000000
Si      -3.49894542       0.82163503      -1.21627665       0.00000000
Si       3.13855035       2.17696304      -0.07400082       0.00000000
