10
Lattice="16.2900001489832 0.0 0.0 0.0 16.2900001489832 0.0 0.0 0.0 29.33048724650998" Properties=species:S:1:pos:R:3:initial_magmoms:R:1 pbc="T T T"
Si       1.28969560       1.31022100      -1.43798580       0.00000000
Si       1.36612828      -1.30548061       1.39085171       0.00000000
Si      -1.32120046      -1.24183558      -1.50790968       0.00000000
Si      -1.37137366       1.45078741       1.28353145       0.00000000
Si      -0.53346492       2.10137744      -2.74656549       0.00000000
Si      -2.35980200       0.47928438      -2.70259909       0.00000000
Si       2.70987410      -2.59428026      -0.06740146       0.00000000
Si      -2.69998770      -2.63480978      -0.17252193       0.00000000
Si      -2.74922912       0.06799446       2.62945472       0.00000000
Si      -0.00110772      -2.61807995       2.79046149       0.00000000
