10
Lattice="16.2900001489832 0.0 0.0 0.0 16.2900001489832 0.0 0.0 0.0 29.33048724650998" Properties=species:S:1:pos:R:3:initial_magmoms:R:1 pbc="T T T"
Si      -0.67834819       2.02575926      -0.99166377       0.00000000
Si       2.40476240      -0.35289027       0.38296817       0.00000000
Si      -0.67724047      -1.58645053      -1.82382836       0.00000000
Si      -1.20115945       0.48808098       2.20726582       0.00000000
H        1.45053981       2.28367883       0.58690305       0.00000000
H       -1.09410157      -1.96449257       1.80426492       0.00000000
Si       1.49256149      -2.25652340      -2.42205298       0.00000000
Si       2.53364888      -2.63269208      -0.36853757       0.00000000
Si       2.56494197       0.45673902       2.61243717       0.00000000
Si       1.69373973       2.58986567       2.05492327       0.00000000
