10
Lattice="16.2900001489832 0.0 0.0 0.0 16.2900001489832 0.0 0.0 0.0 29.33048724650998" Properties=species:S:1:pos:R:3:initial_magmoms:R:1 pbc="T T T"
Si      -1.33442794      -1.37173204      -1.36546617       0.00000000
Si      -1.42778593       1.32994819       1.32362330       0.00000000
Si       1.33918544      -1.39608559       1.37198047       0.00000000
Si       1.30585528       1.38494323      -1.42664956       0.00000000
Si      -0.06196716       2.69143382       2.69126285       0.00000000
Si       2.67185487       0.01495422      -2.72238250       0.00000000
Si      -2.73574263       2.66119958      -0.15883632       0.00000000
Si       2.69009804       2.74313829      -0.07628860       0.00000000
Si       2.72103438      -0.02018331       2.71548984       0.00000000
Si       2.67183858      -2.76630267      -0.04635097       0.00000000
