10
Lattice="16.2900001489832 0.0 0.0 0.0 16.2900001489832 0.0 0.0 0.0 29.33048724650998" Properties=species:S:1:pos:R:3:initial_magmoms:R:1 pbc="T T T"
H        0.64625689      -0.60662332       1.22272935       0.00000000
Si      -2.19051632      -0.52419591       0.82225088       0.00000000
Si       0.47928438       2.36796329      -0.08321059       0.00000000
Si       1.04534560      -1.24370893      -1.79696163       0.00000000
H        2.37092807       0.53758629       0.71545858       0.00000000
Si      -1.63934417       2.72028993      -1.17670982       0.00000000
Si       1.13850811      -3.16045551      -0.46392032       0.00000000
Si      -3.35961705       1.24352974      -0.24194719       0.00000000
Si       3.22408425      -0.40633776       1.53210733       0.00000000
Si       2.13470678      -2.51072885       1.56328564       0.00000000
