10
Lattice="16.2900001489832 0.0 0.0 0.0 16.2900001489832 0.0 0.0 0.0 29.33048724650998" Properties=species:S:1:pos:R:3:initial_magmoms:R:1 pbc="T T T"
Si       1.87045040      -0.93851578       1.09959997       0.00000000
Si       0.44147529      -0.89642242      -2.16262482       0.00000000
Si      -1.75703616      -1.57286467       0.35240580       0.00000000
Si      -0.22165803       2.42382170      -0.20449216       0.00000000
H       -2.00023609      -1.87905152      -1.11561441       0.00000000
Si      -2.45296288       2.55627569       0.53519340       0.00000000
Si       3.49138686      -0.74738521      -0.62394746       0.00000000
Si      -2.30768052       1.36311463       2.60900550       0.00000000
Si       1.07525404      -3.01964475       1.93179388       0.00000000
Si       2.64798839      -0.26142192      -2.78396186       0.00000000
