10
Lattice="16.2900001489832 0.0 0.0 0.0 16.2900001489832 0.0 0.0 0.0 29.33048724650998" Properties=species:S:1:pos:R:3:initial_magmoms:R:1 pbc="T T T"
Si       1.00652653      -1.08962019       0.26368108       0.00000000
H       -0.65484172       1.54343027       1.75786409       0.00000000
H        2.28866357       1.80700248      -0.30075482       0.00000000
Si       0.00351864      -3.09363230      -0.50160999       0.00000000
Si       1.37619550      -1.21477626       2.61009073       0.00000000
Si       2.77371462      -1.07619723      -1.42103278       0.00000000
Si      -1.88470415       1.58456252      -2.40765171       0.00000000
H        0.87925276       2.69335767      -2.02550479       0.00000000
Si      -0.96868486      -2.37910402      -2.55990627       0.00000000
Si       0.37276407       1.83243117      -3.17860356       0.00000000
