10
Lattice="16.2900001489832 0.0 0.0 0.0 16.2900001489832 0.0 0.0 0.0 29.33048724650998" Properties=species:S:1:pos:R:3:initial_magmoms:R:1 pbc="T T T"
Si      -0.94626982      -1.74205262      -1.25205984       0.00000000
Si      -1.61774362       1.74364496       0.01044165       0.00000000
Si       1.93919420       1.11262330      -0.85991123       0.00000000
Si       1.08756928      -1.04560624       1.89803449       0.00000000
H        0.92874178       1.78127714       1.43135711       0.00000000
H        0.48242835       1.56263455       2.06037874       0.00000000
Si       2.42087321      -2.37309464       0.51384081       0.00000000
Si      -0.79881274       3.03652119      -1.75569364       0.00000000
Si       1.02185542      -3.26783919      -1.25003604       0.00000000
Si      -2.75700596      -2.45200340       0.34011633       0.00000000
