10
Lattice="16.2900001489832 0.0 0.0 0.0 16.2900001489832 0.0 0.0 0.0 29.33048724650998" Properties=species:S:1:pos:R:3:initial_magmoms:R:1 pbc="T T T"
Si       0.89474455      -0.93439441       0.78831551       0.00000000
H        1.15691581       1.71688457       1.29086407       0.00000000
Si      -2.30914010      -0.69701653      -0.82125364       0.00000000
H       -2.23055714      -1.68695984       0.31099116       0.00000000
Si       0.91518850      -2.50947452      -1.10719656       0.00000000
Si      -0.74316610      -1.45622827      -2.41859198       0.00000000
Si      -0.60152455      -1.45929079       2.62267351       0.00000000
Si       0.16039134       2.91568197       1.20017421       0.00000000
Si      -2.98509366       1.45720567      -0.04493431       0.00000000
Si       2.85104325       0.36766530       1.73287452       0.00000000
