10
Lattice="16.2900001489832 0.0 0.0 0.0 16.2900001489832 0.0 0.0 0.0 29.33048724650998" Properties=species:S:1:pos:R:3:initial_magmoms:R:1 pbc="T T T"
Si       0.17202240       1.44182791      -0.77546875       0.00000000
Si      -1.11031012      -1.18570024       0.39971588       0.00000000
Si       1.84463075       2.13104153       0.71346410       0.00000000
Si      -0.96557347      -1.98690761      -1.98699386       0.00000000
Si      -2.38659905       0.24065217       1.92056030       0.00000000
Si       0.29496303      -2.44346744       1.86565363       0.00000000
Si       1.27969354       0.74051083      -2.71981608       0.00000000
Si       1.48385611      -1.60630804      -2.33476545       0.00000000
Si      -1.81299557       2.82045063      -0.68029132       0.00000000
Si       3.07855428       0.47324079       1.89137647       0.00000000
