10
Lattice="16.2900001489832 0.0 0.0 0.0 16.2900001489832 0.0 0.0 0.0 29.33048724650998" Properties=species:S:1:pos:R:3:initial_magmoms:R:1 pbc="T T T"
Si       1.38701695      -1.36947360       1.34429542       0.00000000
Si      -1.36504011       1.34936261       1.39934581       0.00000000
Si       1.34741596       1.47272679      -1.29172932       0.00000000
Si      -1.36797443      -1.40480400      -1.35792823       0.00000000
Si      -2.64278700       0.02895222      -2.72610747       0.00000000
Si       2.65450928       0.19931630      -2.73144562       0.00000000
Si      -2.69136378       2.73305152       0.02205066       0.00000000
Si       2.73967340      -2.69044339      -0.09908132       0.00000000
Si       0.01228266      -2.67860056       2.76409045       0.00000000
Si       2.72872652       2.72805049       0.12506813       0.00000000
