10
Lattice="16.2900001489832 0.0 0.0 0.0 16.2900001489832 0.0 0.0 0.0 29.33048724650998" Properties=species:S:1:pos:R:3:initial_magmoms:R:1 pbc="T T T"
Si      -1.23639472      -1.22546413      -1.53659490       0.00000000
Si       1.35534430      -1.40010922       1.30825705       0.00000000
Si       1.46276056       1.42043914      -1.30462007       0.00000000
Si      -1.70735492       0.37282923       1.70190152       0.00000000
Si       1.72571375       0.26173143       2.92856116       0.00000000
Si      -0.48079935      -0.37326906       3.54989820       0.00000000
Si      -2.61141246      -2.51946029      -0.12820356       0.00000000
Si       0.20838168      -2.53100990      -2.84030572       0.00000000
Si      -2.56149664       0.23817609      -2.82693102       0.00000000
Si       2.96276007      -2.50352867       0.02059000       0.00000000
