10
Lattice="16.2900001489832 0.0 0.0 0.0 16.2900001489832 0.0 0.0 0.0 29.33048724650998" Properties=species:S:1:pos:R:3:initial_magmoms:R:1 pbc="T T T"
Si       1.05076854      -1.59749515      -1.36234247       0.00000000
Si      -1.38921773      -0.69185260       1.78420287       0.00000000
Si      -1.56798419       1.28573713      -1.22466516       0.00000000
Si       1.95482608       1.29479437       0.46776261       0.00000000
H        0.73967026      -0.43393302       3.36276969       0.00000000
Si       1.08562588       3.39760533       0.91106359       0.00000000
Si       2.42578628      -0.30349899      -2.77073381       0.00000000
Si      -0.27191920       2.56481165      -2.69778889       0.00000000
Si       2.30476787      -3.06462144      -0.01748097       0.00000000
Si      -3.58002727      -1.15584067       0.88712992       0.00000000
