10
Lattice="16.2900001489832 0.0 0.0 0.0 16.2900001489832 0.0 0.0 0.0 29.33048724650998" Properties=species:S:1:pos:R:3:initial_magmoms:R:1 pbc="T T T"
Si      -1.87045040       0.93851578      -1.09959997       0.00000000
Si       1.62093646       0.19113057      -1.72354742       0.00000000
Si      -0.79519636      -2.08112897       0.83219391       0.00000000
Si       1.18635184       0.92031985       1.84749806       0.00000000
Si       2.43164090       2.31679640      -1.00025761       0.00000000
Si      -1.42897510       0.04209336      -3.26222478       0.00000000
Si       1.27951435      -0.99642673       3.18053938       0.00000000
Si      -1.00012456      -1.66811231       3.11079148       0.00000000
Si      -3.62748656      -0.63434890      -0.74719416       0.00000000
Si       3.37321920       1.39478239       0.96377048       0.00000000
