10
Lattice="16.2900001489832 0.0 0.0 0.0 16.2900001489832 0.0 0.0 0.0 29.33048724650998" Properties=species:S:1:pos:R:3:initial_magmoms:R:1 pbc="T T T"
Si      -1.30981375      -1.30520368      -1.50201425       0.00000000
Si       1.30794040      -1.47297439       1.34389360       0.00000000
Si       1.36505314       1.33405327      -1.43866040       0.00000000
Si      -1.37933947       1.41150685       1.35852951       0.00000000
Si       2.70119153       2.66744680      -0.00627672       0.00000000
Si      -2.71631680      -2.65523744      -0.17841735       0.00000000
Si       2.65927736      -2.73551457      -0.16334148       0.00000000
Si      -2.64678619       2.80734206      -0.10374193       0.00000000
Si      -0.15482016      -2.89341354       2.64851367       0.00000000
Si      -0.04411332       2.69591357       2.85473632       0.00000000
