10
Lattice="16.28999089631971 0.0 0.0 0.0 16.28999089631971 0.0 0.0 0.0 34.5300574570662" Properties=species:S:1:pos:R:3:initial_magmoms:R:1 pbc="T T T"
Si       2.18649267       0.64304775       0.38487224       0.00000000
Si      -0.71463253      -0.32894397       2.26071866       0.00000000
Si       0.69752151      -2.06710326      -1.05917557       0.00000000
Si      -1.43815125       1.60863750      -1.11929244       0.00000000
Si      -1.07994718      -3.20329818      -0.06729912       0.00000000
Si      -0.86476442      -2.65109976       2.25982087       0.00000000
Si       3.35368746       0.35199432      -1.65917019       0.00000000
Si      -0.80009964       3.72524837      -0.17530920       0.00000000
Si       0.97541262      -1.55699820      -3.34306391       0.00000000
Si      -2.94895331       0.33502014       2.44441866       0.00000000
