10
Lattice="16.28999089631971 0.0 0.0 0.0 16.28999089631971 0.0 0.0 0.0 34.5300574570662" Properties=species:S:1:pos:R:3:initial_magmoms:R:1 pbc="T T T"
Si      -1.35389448       1.35182565      -1.35451132       0.00000000
Si       1.35998694       1.35397593       1.35696296       0.00000000
Si      -1.35501849      -1.36015310       1.35713561       0.00000000
Si       1.36036161      -1.36087474      -1.36193529       0.00000000
Si      -2.69464293      -0.01332522      -2.71418489       0.00000000
Si      -0.02705769       2.71300176      -2.69645369       0.00000000
Si      -2.71217097       2.71003698      -0.00162291       0.00000000
Si       0.00185706       2.71199178       2.71420215       0.00000000
Si      -2.71264338      -0.00278559       2.71402950       0.00000000
Si       2.71736748       2.71225242      -0.00041436       0.00000000
