10
Lattice="16.28999089631971 0.0 0.0 0.0 16.28999089631971 0.0 0.0 0.0 34.5300574570662" Properties=species:S:1:pos:R:3:initial_magmoms:R:1 pbc="T T T"
Si      -1.34967537      -1.36376200      -1.37426252       0.00000000
Si       1.36792017       1.35292848      -1.37809536       0.00000000
Si       1.31051421      -1.44281737       1.38524309       0.00000000
Si      -1.43829297       1.34488122       1.43082279       0.00000000
Si       2.70790299       2.68448937       0.00656071       0.00000000
Si      -2.70591561       2.71288284      -0.00590464       0.00000000
Si      -2.70164763      -0.20294245       2.71951979       0.00000000
Si       2.71699281      -2.71443106      -0.01616008       0.00000000
Si       0.00695583       2.70613878      -2.73592157       0.00000000
Si      -2.70666495      -0.00573734      -2.73647405       0.00000000
