10
Lattice="16.28999089631971 0.0 0.0 0.0 16.28999089631971 0.0 0.0 0.0 34.5300574570662" Properties=species:S:1:pos:R:3:initial_magmoms:R:1 pbc="T T T"
Si       0.59101749      -1.94857722       1.34442854       0.00000000
Si      -1.35997065      -1.16361099      -1.67816173       0.00000000
Si       1.29653739       1.35443205      -1.64090378       0.00000000
Si       0.78742602       1.99653498       1.48717588       0.00000000
Si       2.49935841      -2.81570206       0.08156004       0.00000000
Si       2.66276340       0.80024625       2.55843698       0.00000000
Si      -2.62332531      -2.71143466      -0.38946474       0.00000000
Si       0.91592154      -1.01701728       3.56730223       0.00000000
Si      -0.84634695       2.11116771       3.16091776       0.00000000
Si       0.07832232      -2.50849221      -3.10898452       0.00000000
