10
Lattice="16.28999089631971 0.0 0.0 0.0 16.28999089631971 0.0 0.0 0.0 34.5300574570662" Properties=species:S:1:pos:R:3:initial_magmoms:R:1 pbc="T T T"
Si      -2.13094377      -0.13403249      -0.90665623       0.00000000
Si       1.33217991      -0.92767382      -1.69055803       0.00000000
Si       0.42671655       2.20346685       0.68531843       0.00000000
Si       0.06550209      -1.50474707       1.84597790       0.00000000
Si       1.15763256      -3.13358417      -0.90765760       0.00000000
Si       0.54376020       0.08800835       3.48998939       0.00000000
Si       1.80998190       1.77049494       2.48461167       0.00000000
Si       1.28513439       3.16908918      -1.24798603       0.00000000
Si      -3.55537395      -0.05901215       0.94343076       0.00000000
Si      -2.24678196      -2.22087176      -1.96013434       0.00000000
