10
Lattice="16.28999089631971 0.0 0.0 0.0 16.28999089631971 0.0 0.0 0.0 34.5300574570662" Properties=species:S:1:pos:R:3:initial_magmoms:R:1 pbc="T T T"
Si       1.23725808      -1.39774716      -1.37289168       0.00000000
Si      -1.32683679      -1.36117611       1.34194237       0.00000000
Si       1.38528531       1.35798327       1.33621038       0.00000000
Si      -1.39983228       1.26990324      -1.40861995       0.00000000
Si       2.13063426       0.43688151      -2.62949746       0.00000000
Si       0.38444400       2.26859427      -2.68844755       0.00000000
Si      -2.66403402       2.70707220      -0.00476170       0.00000000
Si      -2.68511328      -0.00296478       2.69483078       0.00000000
Si      -2.66758524      -2.72632698      -0.01773119       0.00000000
Si       0.02705769      -2.71300176       2.69645369       0.00000000
