10
Lattice="16.28999089631971 0.0 0.0 0.0 16.28999089631971 0.0 0.0 0.0 34.5300574570662" Properties=species:S:1:pos:R:3:initial_magmoms:R:1 pbc="T T T"
Si       1.39167099       1.58778630       1.07606078       0.00000000
Si       1.48968792      -1.17843489      -1.46152003       0.00000000
Si      -1.20761028       1.54044756      -1.46856416       0.00000000
Si      -1.29653739      -1.35443205       1.64090378       0.00000000
Si      -0.50911137       0.64210293       3.12807965       0.00000000
Si      -2.65650804      -2.51804304      -0.03725795       0.00000000
Si       2.79775863       0.26226900       2.46316850       0.00000000
Si      -0.09316251       2.96393292       2.35650509       0.00000000
Si       0.14970510      -2.50999578      -2.84617611       0.00000000
Si       2.64016917      -2.75514399       0.01560759       0.00000000
