10
Lattice="16.28999089631971 0.0 0.0 0.0 16.28999089631971 0.0 0.0 0.0 34.5300574570662" Properties=species:S:1:pos:R:3:initial_magmoms:R:1 pbc="T T T"
Si      -2.07684468       0.94222989      -0.64277738       0.00000000
Si       0.13103676      -0.55319211       2.30377766       0.00000000
Si      -0.53185221      -1.93523571      -1.34422136       0.00000000
Si       1.64879235       1.78575867      -0.26757356       0.00000000
Si       0.41016591      -2.87663481       2.01514075       0.00000000
Si       0.29258469       3.73472685       0.36201332       0.00000000
Si      -1.94953833       3.24092808      -0.35997605       0.00000000
Si       1.10192076      -2.04986844      -3.01796324       0.00000000
Si      -0.52370721      -3.79555371       0.07859045       0.00000000
Si       3.39762159       1.28651904       1.31942876       0.00000000
