10
Lattice="16.28999089631971 0.0 0.0 0.0 16.28999089631971 0.0 0.0 0.0 34.5300574570662" Properties=species:S:1:pos:R:3:initial_magmoms:R:1 pbc="T T T"
Si      -0.58407795      -2.23505316       0.71408199       0.00000000
Si       1.60484193       0.98813511       1.55167806       0.00000000
Si      -1.94826771       1.48421448       0.04644295       0.00000000
Si       1.01380815      -0.09257607      -2.24224506       0.00000000
Si       1.11324231      -2.67794568       2.25892309       0.00000000
Si      -0.92352897      -0.44048160      -3.57973306       0.00000000
Si       1.48960647       2.21156298      -2.64362268       0.00000000
Si       3.73347252       0.18806805       0.72423383       0.00000000
Si       1.77349230       3.39657903       1.17067319       0.00000000
Si      -0.62218026      -3.78564939      -1.18217171       0.00000000
