10
Lattice="16.28999089631971 0.0 0.0 0.0 16.28999089631971 0.0 0.0 0.0 34.5300574570662" Properties=species:S:1:pos:R:3:initial_magmoms:R:1 pbc="T T T"
Si       1.30046328      -1.44285417      -1.28707063       0.00000000
Si      -1.32864498      -1.35042471       1.36860305       0.00000000
Si       1.38569256       1.36642149       1.36798150       0.00000000
Si      -1.37906253       1.08652671      -1.65529591       0.00000000
Si       2.32212321       0.12654072      -2.63339487       0.00000000
Si       0.57129030       1.87745508      -3.05668323       0.00000000
Si      -2.67879276       2.70023040      -0.03280703       0.00000000
Si      -2.66781330      -2.71339272       0.02517933       0.00000000
Si      -2.69055414       0.00607617       2.72580771       0.00000000
Si       0.02436984      -2.70539433       2.72694720       0.00000000
