10
Lattice="16.28999089631971 0.0 0.0 0.0 16.28999089631971 0.0 0.0 0.0 34.5300574570662" Properties=species:S:1:pos:R:3:initial_magmoms:R:1 pbc="T T T"
Si       0.77704929      -1.41872705       1.67719489       0.00000000
Si       0.45696708       2.31072021       0.19682144       0.00000000
Si      -2.32538121      -0.42336570       0.06353534       0.00000000
Si       1.80341703      -0.04350244      -1.54401238       0.00000000
Si       2.67001245       1.86513984      -0.43055553       0.00000000
Si      -2.54418035      -0.41322517       2.46282319       0.00000000
Si       0.66121110      -3.50556632       0.62371678       0.00000000
Si       0.73625913       1.11436632      -3.40290453       0.00000000
Si      -0.64738089      -1.34370671       3.52728187       0.00000000
Si      -1.06715790       3.49699059      -1.20948500       0.00000000
