10
Lattice="16.28999089631971 0.0 0.0 0.0 16.28999089631971 0.0 0.0 0.0 34.5300574570662" Properties=species:S:1:pos:R:3:initial_magmoms:R:1 pbc="T T T"
Si       1.36453185      -1.29402873      -1.35420055       0.00000000
Si      -1.31232240       1.41286428      -1.33020215       0.00000000
Si      -1.65442869      -1.01037096       1.33935262       0.00000000
Si       1.76342508       1.04342337       1.18047973       0.00000000
Si       0.21206322       2.21936589       2.63236587       0.00000000
Si      -0.20764863      -2.61588078       2.51544703       0.00000000
Si      -2.58587460       2.70602964       0.16570984       0.00000000
Si       2.75413401      -2.57693139      -0.01243083       0.00000000
Si       0.03891681      -2.66362677      -2.68664715       0.00000000
Si      -2.68495038       0.05530455      -2.68792476       0.00000000
