10
Lattice="16.28999089631971 0.0 0.0 0.0 16.28999089631971 0.0 0.0 0.0 34.5300574570662" Properties=species:S:1:pos:R:3:initial_magmoms:R:1 pbc="T T T"
Si      -1.33867962       1.35635427      -1.31673542       0.00000000
Si       1.41211494      -1.38969990      -1.29998833       0.00000000
Si       1.07978265       1.63929528       1.34898651       0.00000000
Si      -1.47212730      -1.18697085       1.48872973       0.00000000
Si       2.52656271       0.03378546       2.52508092       0.00000000
Si      -2.66712912      -0.00853596      -2.67690967       0.00000000
Si      -2.61309519       2.73675258       0.22682807       0.00000000
Si       0.04926096       2.70497079      -2.67829087       0.00000000
Si       2.73421134       2.64966624       0.00963389       0.00000000
Si      -2.62671363      -2.75164164       0.17420424       0.00000000
