10
Lattice="16.28999089631971 0.0 0.0 0.0 16.28999089631971 0.0 0.0 0.0 34.5300574570662" Properties=species:S:1:pos:R:3:initial_magmoms:R:1 pbc="T T T"
Si       0.27463311       0.24281874       2.30985495       0.00000000
Si       1.70631234       1.41511230      -0.98952841       0.00000000
Si       0.10971315      -2.43427986      -0.17271944       0.00000000
Si      -2.07291879       1.18201869      -0.52478811       0.00000000
Si       0.53932932       2.51700048       2.50819572       0.00000000
Si      -1.79502768       1.69212375      -2.80867644       0.00000000
Si      -1.94670387      -3.07615473      -1.13172327       0.00000000
Si       0.58324716       3.60111627      -1.12478272       0.00000000
Si       2.31814845      -0.77628366       2.96471786       0.00000000
Si      -3.85038748       0.04582377       0.46708835       0.00000000
