10
Lattice="16.28999089631971 0.0 0.0 0.0 16.28999089631971 0.0 0.0 0.0 34.5300574570662" Properties=species:S:1:pos:R:3:initial_magmoms:R:1 pbc="T T T"
Si      -1.35470898       1.35399222       1.35475303       0.00000000
Si       1.35523026      -1.35668007       1.35820604       0.00000000
Si       1.35855342       1.35591444      -1.35679031       0.00000000
Si      -1.35674523      -1.35842310      -1.35699749       0.00000000
Si       0.01853802       2.67783165       2.72494101       0.00000000
Si      -0.03271032      -2.70529659       2.71976150       0.00000000
Si      -2.69060301       0.00713502       2.73602516       0.00000000
Si      -2.71312231       2.71383255       0.00013812       0.00000000
Si      -2.71432125      -0.00052128      -2.71447839       0.00000000
Si      -0.00060273       2.71463076      -2.71423668       0.00000000
