10
Lattice="16.28999089631971 0.0 0.0 0.0 16.28999089631971 0.0 0.0 0.0 34.5300574570662" Properties=species:S:1:pos:R:3:initial_magmoms:R:1 pbc="T T T"
Si       1.17462303       1.39395159      -1.50043543       0.00000000
Si      -1.38906459      -1.30445433      -1.41082988       0.00000000
Si      -1.22295546       1.53141543       1.39422091       0.00000000
Si       1.40887323      -1.79111808       1.05582616       0.00000000
Si       2.28514491       2.52955911       0.30486605       0.00000000
Si      -1.53401301      -0.35592021       3.40856747       0.00000000
Si       0.37680399       3.39668396       1.56773454       0.00000000
Si      -2.12043672      -3.11528331       0.12693256       0.00000000
Si      -2.83753881       2.63382651      -0.16615873       0.00000000
Si       2.58110163       0.12233790      -2.90183859       0.00000000
