10
Lattice="16.28999089631971 0.0 0.0 0.0 16.28999089631971 0.0 0.0 0.0 34.5300574570662" Properties=species:S:1:pos:R:3:initial_magmoms:R:1 pbc="T T T"
Si       1.44563976       1.84814937       0.15383149       0.00000000
Si      -1.16719479       0.29105343       2.04404242       0.00000000
Si      -1.30536657       0.17298351      -2.04780620       0.00000000
Si       1.12306518      -2.18600397       0.13525431       0.00000000
Si      -2.37827484      -1.90899252      -1.68389372       0.00000000
Si      -2.65616595      -2.41909758       0.59999461       0.00000000
Si       2.39327793      -0.21483252      -2.76036887       0.00000000
Si       1.62258174      -2.48328018      -2.14659675       0.00000000
Si       2.41176708       1.58425137       2.31361873       0.00000000
Si      -0.02498886       3.75311730      -0.12368673       0.00000000
