10
Lattice="16.28999089631971 0.0 0.0 0.0 16.28999089631971 0.0 0.0 0.0 34.5300574570662" Properties=species:S:1:pos:R:3:initial_magmoms:R:1 pbc="T T T"
Si      -1.05231771       1.09913584      -1.80695892       0.00000000
Si       1.81338651      -1.38785913      -0.81584212       0.00000000
Si      -2.11082562      -1.40353011       0.05307273       0.00000000
Si       1.05279012       1.80720513       1.61321066       0.00000000
Si       3.54486690      -0.41462937       0.67789447       0.00000000
Si       1.06205913      -3.49912458       0.02658816       0.00000000
Si      -3.01586544       2.00467902      -0.94968070       0.00000000
Si      -1.53057582      -0.49361958      -3.45097040       0.00000000
Si      -3.80277018       0.27352539       0.53725346       0.00000000
Si       2.12449293      -0.89264313      -3.12593879       0.00000000
