10
Lattice="16.28999089631971 0.0 0.0 0.0 16.28999089631971 0.0 0.0 0.0 34.5300574570662" Properties=species:S:1:pos:R:3:initial_magmoms:R:1 pbc="T T T"
Si      -1.23725808       1.39774716       1.37289168       0.00000000
Si       0.89337618       1.83462867      -1.25660578       0.00000000
Si       1.50552180      -1.31790987       1.33580293       0.00000000
Si      -1.68876801      -1.13777505      -1.45765753       0.00000000
Si      -2.56409487       0.03657105       2.71483405       0.00000000
Si      -2.63709036       2.66765040      -0.03572827       0.00000000
Si       0.15016122      -2.67612935       2.70741009       0.00000000
Si       0.14802723       2.75573043       2.70910206       0.00000000
Si       2.86925544      -2.62073683      -0.16117259       0.00000000
Si      -2.74600530      -2.76818739      -0.14629012       0.00000000
