10
Lattice="16.28999089631971 0.0 0.0 0.0 16.28999089631971 0.0 0.0 0.0 34.5300574570662" Properties=species:S:1:pos:R:3:initial_magmoms:R:1 pbc="T T T"
Si      -0.68154102      -2.11702626       0.84429491       0.00000000
Si      -1.37243250       1.43714941      -1.32115527       0.00000000
Si       0.82872117       1.30842583       1.85802890       0.00000000
Si       1.93171707      -0.55268875      -1.35599611       0.00000000
Si       3.13424487       1.19087719       1.43023578       0.00000000
Si       1.24804206      -2.70045261       2.17201089       0.00000000
Si       2.55748113       1.53637180      -2.28074610       0.00000000
Si      -2.48720607      -1.72326438       2.27912319       0.00000000
Si       3.77183547      -0.68557605       0.17382441       0.00000000
Si       0.14947704       3.51656791       1.60913611       0.00000000
