10
Lattice="16.28999089631971 0.0 0.0 0.0 16.28999089631971 0.0 0.0 0.0 34.5300574570662" Properties=species:S:1:pos:R:3:initial_magmoms:R:1 pbc="T T T"
Si      -1.27356849       1.40672295       1.37702493       0.00000000
Si       1.37678193      -0.87312771       1.72633119       0.00000000
Si       1.56338388       1.36790388      -1.18686780       0.00000000
Si      -1.43115795      -1.61069004      -1.07053597       0.00000000
Si      -0.52202934      -1.12777299       3.16247161       0.00000000
Si       2.46790242      -2.38858641       0.18594446       0.00000000
Si      -2.58163920      -0.03398094      -2.54766359       0.00000000
Si       2.29695516       1.24002738       2.62953440       0.00000000
Si       0.15775236       2.71274112      -2.56717309       0.00000000
Si       0.12541671      -2.73303520      -2.55684859       0.00000000
