10
Lattice="16.28999089631971 0.0 0.0 0.0 16.28999089631971 0.0 0.0 0.0 34.5300574570662" Properties=species:S:1:pos:R:3:initial_magmoms:R:1 pbc="T T T"
Si       1.35018036       1.36098063       1.37800213       0.00000000
Si      -1.35701239      -1.36031274       1.37679358       0.00000000
Si       1.60627545      -1.15395102      -1.30531632       0.00000000
Si      -1.29000021       1.39505931      -1.43372677       0.00000000
Si       0.41700771       2.54498670      -2.72577460       0.00000000
Si      -2.70941677       2.71740006      -0.00605658       0.00000000
Si      -2.72182184      -2.70536175      -0.02165381       0.00000000
Si       2.73411360       2.70949941       0.03644304       0.00000000
Si       2.71303434      -0.00053757       2.73603552       0.00000000
Si      -0.00255753      -2.71370223       2.73776202       0.00000000
