10
Lattice="16.28999089631971 0.0 0.0 0.0 16.28999089631971 0.0 0.0 0.0 34.5300574570662" Properties=species:S:1:pos:R:3:initial_magmoms:R:1 pbc="T T T"
Si       0.65518380      -0.86249034      -2.07429077       0.00000000
Si      -1.47931119      -1.77543081       0.49661156       0.00000000
Si      -1.03389372       2.11784661      -0.26574347       0.00000000
Si       1.84425606       0.11595222       1.50955137       0.00000000
Si      -1.70787618      -0.83590506      -2.75246148       0.00000000
Si       1.67417217      -2.92182327      -1.27709489       0.00000000
Si      -3.28647492      -1.24726014      -0.88597271       0.00000000
Si      -1.55944170       2.65326633       1.94342178       0.00000000
Si      -1.70916309      -1.63616760       2.78965037       0.00000000
Si       0.77219487       3.53422953      -0.59509134       0.00000000
