10
Lattice="16.28999089631971 0.0 0.0 0.0 16.28999089631971 0.0 0.0 0.0 34.5300574570662" Properties=species:S:1:pos:R:3:initial_magmoms:R:1 pbc="T T T"
Si      -1.35723393       1.35702216      -1.35730826       0.00000000
Si       1.35741312       1.35840681       1.35609970       0.00000000
Si       1.35786924      -1.35791811      -1.35720467       0.00000000
Si      -1.35798327      -1.35835794       1.35896570       0.00000000
Si       2.71006956       0.00390960       2.71465104       0.00000000
Si       0.00092853       2.71189404       2.71489275       0.00000000
Si      -0.00109143      -2.71412577      -2.71361514       0.00000000
Si      -0.00148239       2.71313208      -2.71606678       0.00000000
Si      -2.71480995       2.71446786       0.00041436       0.00000000
Si       2.71492398       2.71482624      -0.00010359       0.00000000
