10
Lattice="16.28999089631971 0.0 0.0 0.0 16.28999089631971 0.0 0.0 0.0 34.5300574570662" Properties=species:S:1:pos:R:3:initial_magmoms:R:1 pbc="T T T"
Si      -1.37872044      -1.35136953       1.33448388       0.00000000
Si      -1.35265644       1.35449721      -1.35855134       0.00000000
Si       1.36399428      -1.36267479      -1.35720467       0.00000000
Si       1.36430379       1.36309833       1.37229431       0.00000000
Si       0.01088172      -2.63427219       2.67625360       0.00000000
Si      -2.70914103       2.70798444       0.00024171       0.00000000
Si      -2.71006956      -0.00390960      -2.71465104       0.00000000
Si      -2.70433548      -2.72096757       0.00203727       0.00000000
Si       0.00485442       2.71091664      -2.71475463       0.00000000
Si       2.71839375       2.70787041       0.00162291       0.00000000
