10
Lattice="16.28999089631971 0.0 0.0 0.0 16.28999089631971 0.0 0.0 0.0 34.5300574570662" Properties=species:S:1:pos:R:3:initial_magmoms:R:1 pbc="T T T"
Si       2.10776310       0.51813603      -0.97077858       0.00000000
Si      -0.95967648       1.97389188      -1.04439670       0.00000000
Si       0.68685156      -0.49669839       2.34013783       0.00000000
Si      -0.84479940      -1.83172905      -1.48841896       0.00000000
Si      -2.32293771      -2.01976452       0.40607370       0.00000000
Si      -0.57410847      -2.51900415       1.99307603       0.00000000
Si       2.55945222      -2.02331574      -0.80044171       0.00000000
Si       3.00493485       1.41090948       1.01963864       0.00000000
Si      -2.90844918       2.19765132       0.42188848       0.00000000
Si      -3.67914537      -0.07079634       1.03566059       0.00000000
