10
Lattice="16.28999089631971 0.0 0.0 0.0 16.28999089631971 0.0 0.0 0.0 34.5300574570662" Properties=species:S:1:pos:R:3:initial_magmoms:R:1 pbc="T T T"
Si      -1.47813831      -0.18803547       1.89449266       0.00000000
Si       0.84479940       1.83172905       1.48841896       0.00000000
Si      -1.60906104      -1.70183259      -1.62747158       0.00000000
Si       3.40425162      -0.19158669       0.68797725       0.00000000
Si       2.47148622      -0.16685847      -2.54120647       0.00000000
Si       0.27069093      -0.68727510       3.48149499       0.00000000
Si       0.36201267       1.95747156      -2.96243887       0.00000000
Si       1.79150904      -2.15850645       2.28195465       0.00000000
Si      -1.18934919       3.13341408      -1.51055274       0.00000000
Si       2.95256250       2.34986508       0.51764038       0.00000000
