10
Lattice="16.28999089631971 0.0 0.0 0.0 16.28999089631971 0.0 0.0 0.0 34.5300574570662" Properties=species:S:1:pos:R:3:initial_magmoms:R:1 pbc="T T T"
Si       0.75132738       2.11126545      -0.84243028       0.00000000
Si       2.26202940      -0.89420697       0.13950151       0.00000000
Si      -1.71893709      -1.19405700      -1.42391678       0.00000000
Si      -0.10319715       0.59031702       2.48816827       0.00000000
Si       1.64763576      -1.16059734       2.91145664       0.00000000
Si      -1.06205913       3.49912458      -0.02658816       0.00000000
Si       3.48091236       1.03381227       0.92858282       0.00000000
Si      -3.17288475       2.09559447       0.02648457       0.00000000
Si      -0.89384859      -0.98332956      -3.58722608       0.00000000
Si      -3.74272524       0.13598892      -1.40630644       0.00000000
