10
Lattice="16.28999089631971 0.0 0.0 0.0 16.28999089631971 0.0 0.0 0.0 34.5300574570662" Properties=species:S:1:pos:R:3:initial_magmoms:R:1 pbc="T T T"
Si       1.35542574       1.35539316       1.35796433       0.00000000
Si      -1.35751086      -1.35641943       1.35620329       0.00000000
Si      -1.35715248       1.35711990      -1.35754997       0.00000000
Si       1.35707103      -1.35741312      -1.35758450       0.00000000
Si      -0.00485442      -2.71091664       2.71475463       0.00000000
Si      -0.00055386       2.71357191      -2.71371873       0.00000000
Si       2.71541268      -0.00078192      -2.71295907       0.00000000
Si      -2.71399545      -0.00293220       2.71499634       0.00000000
Si      -2.71492398      -2.71482624       0.00010359       0.00000000
Si       2.71353933      -0.00304623       2.71637755       0.00000000
