10
Lattice="16.28999089631971 0.0 0.0 0.0 16.28999089631971 0.0 0.0 0.0 34.5300574570662" Properties=species:S:1:pos:R:3:initial_magmoms:R:1 pbc="T T T"
Si      -1.34205111      -1.35902583       1.35654860       0.00000000
Si      -1.35513198       1.35856971      -1.36051955       0.00000000
Si       1.35935284      -1.35638685      -1.35934553       0.00000000
Si       1.35665033       1.36254447       1.39159662       0.00000000
Si      -2.65634460       0.02036250       2.74386349       0.00000000
Si       2.71313981      -2.71226871       0.00041436       0.00000000
Si      -2.71259397       2.71397916      -0.00569746       0.00000000
Si      -2.71410894      -2.71311579       0.00255523       0.00000000
Si      -2.71301751       0.00047241      -2.71727533       0.00000000
Si       2.71208096       2.71852407      -0.00089778       0.00000000
