10
Lattice="16.28999089631971 0.0 0.0 0.0 16.28999089631971 0.0 0.0 0.0 34.5300574570662" Properties=species:S:1:pos:R:3:initial_magmoms:R:1 pbc="T T T"
Si       1.07447211       0.67220685       1.95457499       0.00000000
Si       1.55136186      -1.17594252      -1.45188614       0.00000000
Si      -1.40887323       1.79111808      -1.05582616       0.00000000
Si      -0.21206322      -2.21936589      -2.63236587       0.00000000
Si       2.23998903       2.76934887       0.69063607       0.00000000
Si      -0.87430059       0.89596629       3.42086017       0.00000000
Si       1.18934919      -3.13341408       1.51055274       0.00000000
Si       2.60178993       0.64078344      -2.55329200       0.00000000
Si      -2.79793782       0.48666375      -2.46665603       0.00000000
Si       2.03414859      -1.30168503       2.99897170       0.00000000
