10
Lattice="16.28999089631971 0.0 0.0 0.0 16.28999089631971 0.0 0.0 0.0 34.5300574570662" Properties=species:S:1:pos:R:3:initial_magmoms:R:1 pbc="T T T"
Si       1.35543063       1.35597960      -1.39249441       0.00000000
Si      -1.35665033      -1.36254447      -1.39159662       0.00000000
Si       1.39584612      -1.38712608       1.45861950       0.00000000
Si      -1.46637923       1.40447493       1.40026367       0.00000000
Si       2.55043245       0.17754471       2.77314499       0.00000000
Si       2.68388013       2.72086983      -0.03232015       0.00000000
Si      -2.69870144      -2.72157030      -0.03504803       0.00000000
Si       2.71815429      -2.71567332      -0.02099429       0.00000000
Si      -2.73923096       2.70961344      -0.03884634       0.00000000
Si       0.00154103       2.70778896      -2.75190900       0.00000000
