10
Lattice="16.28999089631971 0.0 0.0 0.0 16.28999089631971 0.0 0.0 0.0 34.5300574570662" Properties=species:S:1:pos:R:3:initial_magmoms:R:1 pbc="T T T"
Si      -1.37678193       0.87312771      -1.72633119       0.00000000
Si      -1.89881127      -0.25464528       1.43614042       0.00000000
Si       1.09112049      -1.51545870      -1.54038672       0.00000000
Si       0.92017323       2.11315509       0.90320322       0.00000000
Si       1.35459495      -2.56914477       1.03907907       0.00000000
Si      -2.65035042       2.27985066      -0.34930626       0.00000000
Si       0.18660195       2.24103159      -2.91319899       0.00000000
Si      -1.23131223       0.95022828       3.34185536       0.00000000
Si      -1.30482900       3.34036224       1.26749553       0.00000000
Si       3.18069973      -2.37907305      -0.45500282       0.00000000
