10
Lattice="16.28999089631971 0.0 0.0 0.0 16.28999089631971 0.0 0.0 0.0 34.5300574570662" Properties=species:S:1:pos:R:3:initial_magmoms:R:1 pbc="T T T"
Si       1.48694698       1.12963005       1.45751596       0.00000000
Si      -1.25245665      -1.55496195       1.34340442       0.00000000
Si      -1.43938440       1.31991354      -1.56062135       0.00000000
Si       0.90121723       0.61986708      -2.98951046       0.00000000
Si      -2.88870570      -1.01563263      -1.64905288       0.00000000
Si      -1.14776082      -0.48306366      -3.41461023       0.00000000
Si       0.06753043       2.45197080       2.88518616       0.00000000
Si      -2.78842446       2.63218707       0.05990968       0.00000000
Si      -2.65598676      -0.26828001       2.87999628       0.00000000
Si       3.19395491       2.27955744       0.16546813       0.00000000
