10
Lattice="16.28999089631971 0.0 0.0 0.0 16.28999089631971 0.0 0.0 0.0 34.5300574570662" Properties=species:S:1:pos:R:3:initial_magmoms:R:1 pbc="T T T"
Si      -2.29340394       0.51678396      -0.27696575       0.00000000
Si       0.32723352      -1.96879311       1.42219027       0.00000000
Si       1.74094488       0.53256897      -1.76555735       0.00000000
Si       1.44932130       2.33554617       0.08843153       0.00000000
Si      -1.69391565      -0.29369241      -2.52432126       0.00000000
Si       1.63624905      -0.53932932       2.99245729       0.00000000
Si       2.88870570       1.01563263       1.64905288       0.00000000
Si       0.29724363       0.36688338      -3.66571295       0.00000000
Si      -3.09555612       1.18951209       1.95200289       0.00000000
Si      -2.54071872       2.89851228      -1.03579871       0.00000000
