10
Lattice="16.28999089631971 0.0 0.0 0.0 16.28999089631971 0.0 0.0 0.0 34.5300574570662" Properties=species:S:1:pos:R:3:initial_magmoms:R:1 pbc="T T T"
Si       0.27987849      -0.65236563       2.25146459       0.00000000
Si       2.06298189       0.74912823      -0.89298231       0.00000000
Si      -0.29209599      -2.02514022      -1.26856596       0.00000000
Si      -1.71333659       1.55121525      -0.74032485       0.00000000
Si       0.97080255       0.28535193      -3.08933691       0.00000000
Si      -1.43060246       0.68383791      -3.14009612       0.00000000
Si       1.52875134      -1.98514827      -2.77763390       0.00000000
Si       2.19028824       3.04782642      -0.61018099       0.00000000
Si      -0.08573427      -2.97147519       2.46924579       0.00000000
Si       2.33629551      -0.01049076       3.21046842       0.00000000
