10
Lattice="16.28999089631971 0.0 0.0 0.0 16.28999089631971 0.0 0.0 0.0 34.5300574570662" Properties=species:S:1:pos:R:3:initial_magmoms:R:1 pbc="T T T"
Si      -1.35697329       1.35762489       1.35782621       0.00000000
Si      -1.35915615      -1.35759231      -1.35685937       0.00000000
Si       1.35811359      -1.35778779       1.35806792       0.00000000
Si       1.35812155       1.35964485      -1.35692843       0.00000000
Si      -2.71155195      -0.00096111      -2.71554883       0.00000000
Si      -2.71290402      -0.00109143       2.71544524       0.00000000
Si      -2.71420722      -2.71451673       0.00034530       0.00000000
Si       0.00128691      -2.71391400       2.71516900       0.00000000
Si       2.71461025      -0.00215028       2.71537618       0.00000000
Si      -2.71497285       2.71508688       0.00031077       0.00000000
