10
Lattice="16.28999089631971 0.0 0.0 0.0 16.28999089631971 0.0 0.0 0.0 34.5300574570662" Properties=species:S:1:pos:R:3:initial_magmoms:R:1 pbc="T T T"
Si       1.35672894      -1.35741312       1.35454585       0.00000000
Si       1.35593073       1.35871632      -1.35761903       0.00000000
Si      -1.35871632      -1.35645201      -1.35717014       0.00000000
Si      -1.36399428       1.36267479       1.35720467       0.00000000
Si       2.68674228       0.00076563       2.71299360       0.00000000
Si       2.71419093      -2.71282257      -0.00027624       0.00000000
Si       2.71290402       0.00109143      -2.71544524       0.00000000
Si      -0.00130320      -2.71342530      -2.71509994       0.00000000
Si       0.00734679      -2.70619254       2.72380151       0.00000000
Si       2.71249677       2.71788876       0.00055248       0.00000000
