10
Lattice="16.28999089631971 0.0 0.0 0.0 16.28999089631971 0.0 0.0 0.0 34.5300574570662" Properties=species:S:1:pos:R:3:initial_magmoms:R:1 pbc="T T T"
Si      -1.56877587      -1.23929433       1.25193904       0.00000000
Si       1.37062431       1.57165920       1.16351787       0.00000000
Si      -1.39362579      -0.20439063      -1.97865493       0.00000000
Si       0.93623517      -0.01383021      -2.30247799       0.00000000
Si      -0.08065179      -2.52485226       2.61748962       0.00000000
Si       2.61356760       0.18748161       2.63495839       0.00000000
Si       1.99068687      -2.10303900      -2.39999093       0.00000000
Si      -2.39173038       1.84629231      -2.25593145       0.00000000
Si      -2.80999242       0.19859139       2.64307986       0.00000000
Si      -0.08402382       2.91491631       2.61254146       0.00000000
