10
Lattice="16.28999089631971 0.0 0.0 0.0 16.28999089631971 0.0 0.0 0.0 34.5300574570662" Properties=species:S:1:pos:R:3:initial_magmoms:R:1 pbc="T T T"
Si      -1.35677781      -1.35896067      -1.35540910       0.00000000
Si       1.35829278       1.35589815      -1.35758450       0.00000000
Si      -1.35746199       1.35710883       1.35813698       0.00000000
Si       1.35817926      -1.35819504       1.35737732       0.00000000
Si       0.00000000       2.71252025       2.71565242       0.00000000
Si      -0.00302994      -2.71150308      -2.71679191       0.00000000
Si      -2.71420722       2.71460862      -0.00044889       0.00000000
Si       2.71541498       2.71384299       0.00000000       0.00000000
Si      -0.00055386      -2.71388142       2.71565242       0.00000000
Si       2.71519181      -2.71497285       0.00037983       0.00000000
