10
Lattice="16.28999089631971 0.0 0.0 0.0 16.28999089631971 0.0 0.0 0.0 34.5300574570662" Properties=species:S:1:pos:R:3:initial_magmoms:R:1 pbc="T T T"
Si      -1.35542574      -1.35539316      -1.35796433       0.00000000
Si      -1.35356868       1.36016613       1.35782621       0.00000000
Si       1.35811359      -1.35843939       1.35841322       0.00000000
Si       1.35930276       1.35989442      -1.35737732       0.00000000
Si      -2.71293660      -2.71181259      -0.00176103       0.00000000
Si       2.71621089      -2.71109583       0.00013812       0.00000000
Si       2.70032814       0.01226637       2.72694375       0.00000000
Si      -2.71257822       0.00172674      -2.71551430       0.00000000
Si       0.00164529      -2.71280628      -2.71554883       0.00000000
Si      -2.71340901       2.71579617       0.00006906       0.00000000
