10
Lattice="16.28999089631971 0.0 0.0 0.0 16.28999089631971 0.0 0.0 0.0 34.5300574570662" Properties=species:S:1:pos:R:3:initial_magmoms:R:1 pbc="T T T"
Si      -1.27923741       1.37302938      -1.44794971       0.00000000
Si       1.06324830       1.71747818       1.29484335       0.00000000
Si       1.44236547      -1.32374169      -1.45471760       0.00000000
Si      -1.21554351      -1.39276242       1.60834192       0.00000000
Si      -2.54764197      -2.59950933      -0.05711275       0.00000000
Si      -2.83581207       2.49537455       0.03836292       0.00000000
Si      -2.61153135       0.02415807      -2.82383515       0.00000000
Si       2.75309145      -2.71002069      -0.10407365       0.00000000
Si       0.10015092      -2.69444745      -2.82324814       0.00000000
Si       0.10096542       2.74049018      -2.81927718       0.00000000
