10
Lattice="16.28999089631971 0.0 0.0 0.0 16.28999089631971 0.0 0.0 0.0 34.5300574570662" Properties=species:S:1:pos:R:3:initial_magmoms:R:1 pbc="T T T"
Si      -1.31072598       1.38627900      -1.35064395       0.00000000
Si       1.13620048       1.61961696       1.29546489       0.00000000
Si      -1.04648589      -1.70237016       1.26839331       0.00000000
Si       1.44462068      -1.33051833      -1.34221861       0.00000000
Si      -2.48174892      -0.31859982       2.76240614       0.00000000
Si       0.77380011      -3.42236610       1.34297828       0.00000000
Si      -2.65294053       0.01557324      -2.71917448       0.00000000
Si       2.75524892       2.63725326      -0.02627739       0.00000000
Si       0.06498081      -2.69821044      -2.71351155       0.00000000
Si       0.06265134       2.73678516      -2.71661926       0.00000000
