10
Lattice="16.28999089631971 0.0 0.0 0.0 16.28999089631971 0.0 0.0 0.0 34.5300574570662" Properties=species:S:1:pos:R:3:initial_magmoms:R:1 pbc="T T T"
Si       2.10264804       0.70095870      -0.65755625       0.00000000
Si      -0.89717175      -0.89277345      -1.99041721       0.00000000
Si       0.15169248      -2.00117763       1.27699130       0.00000000
Si      -0.85936266       1.83026295       1.27312393       0.00000000
Si      -2.31808329      -1.90760787       1.32049920       0.00000000
Si      -3.00493485      -1.41090948      -1.01963864       0.00000000
Si       0.81857250       1.87403418       2.96074690       0.00000000
Si       1.93543119       1.50029271      -2.78726780       0.00000000
Si       0.38169099       0.10244781      -3.85645709       0.00000000
Si       1.18379430      -3.72311208      -0.07085572       0.00000000
