10
Lattice="16.28999089631971 0.0 0.0 0.0 16.28999089631971 0.0 0.0 0.0 34.5300574570662" Properties=species:S:1:pos:R:3:initial_magmoms:R:1 pbc="T T T"
Si      -0.16721685       0.79933401      -2.12971154       0.00000000
Si      -2.10264804      -0.70095870       0.65755625       0.00000000
Si       0.96551858       1.89941400       1.02875458       0.00000000
Si       1.62055431      -1.78282647      -0.22517063       0.00000000
Si       2.21950177       0.82054359      -2.41665648       0.00000000
Si       2.97381185       1.96276581      -0.20517772       0.00000000
Si      -2.99981979      -1.59373215      -1.33286096       0.00000000
Si      -1.72095705      -0.59851089      -3.19890084       0.00000000
Si      -2.96201070       1.12930425       1.93068018       0.00000000
Si      -0.66557682       3.09390173      -1.98292419       0.00000000
