10
Lattice="16.28999089631971 0.0 0.0 0.0 16.28999089631971 0.0 0.0 0.0 34.5300574570662" Properties=species:S:1:pos:R:3:initial_magmoms:R:1 pbc="T T T"
Si       0.56340594       1.98918819       1.03783599       0.00000000
Si      -1.52833594      -1.06517052       1.44239037       0.00000000
Si       2.08469646      -1.00426221      -0.47012700       0.00000000
Si      -1.26348824       0.17093097      -2.01410485       0.00000000
Si      -0.96054799      -3.10533012       0.39913316       0.00000000
Si      -1.45552127       3.02208822       0.29547387       0.00000000
Si       1.05995772       0.92043387       3.15604902       0.00000000
Si       1.36533006      -3.20191353       0.09944662       0.00000000
Si       2.28939660      -0.01021383      -2.67145392       0.00000000
Si      -1.67070403       2.46988980      -2.03164613       0.00000000
