10
Lattice="16.28999089631971 0.0 0.0 0.0 16.28999089631971 0.0 0.0 0.0 34.5300574570662" Properties=species:S:1:pos:R:3:initial_magmoms:R:1 pbc="T T T"
Si       1.52833594       1.06517052      -1.44239037       0.00000000
Si       0.56778795      -2.04015960      -1.04325721       0.00000000
Si       0.55471360       0.81287100       2.17259790       0.00000000
Si      -2.11243737       0.87462639      -0.80330771       0.00000000
Si      -1.64191701      -0.08656506      -3.04175446       0.00000000
Si      -1.70882004       3.06846585       0.06177431       0.00000000
Si      -0.79495104       2.73836529       2.17135482       0.00000000
Si       0.26484771       1.23610149      -3.45649521       0.00000000
Si       2.58829367       1.98560439       1.71365865       0.00000000
Si       2.09174188       3.05435871      -0.40455438       0.00000000
