10
Lattice="16.28999089631971 0.0 0.0 0.0 16.28999089631971 0.0 0.0 0.0 34.5300574570662" Properties=species:S:1:pos:R:3:initial_magmoms:R:1 pbc="T T T"
Si      -1.35378697       1.35588186      -1.35975989       0.00000000
Si       1.36091547      -1.35948032      -1.36038143       0.00000000
Si       1.36166481       1.35913986       1.37018798       0.00000000
Si      -1.36377274      -1.35370715       1.37902768       0.00000000
Si      -2.71313981       2.71226871      -0.00041436       0.00000000
Si      -2.71247138      -2.71457279       0.00072513       0.00000000
Si      -2.71139487      -0.00229689      -2.71734439       0.00000000
Si       0.00307881       2.71252935      -2.71827670       0.00000000
Si       2.71860552       2.71355562      -0.00445438       0.00000000
Si       2.71790505      -2.71750499       0.00183009       0.00000000
