10
Lattice="16.28999089631971 0.0 0.0 0.0 16.28999089631971 0.0 0.0 0.0 34.5300574570662" Properties=species:S:1:pos:R:3:initial_magmoms:R:1 pbc="T T T"
Si       1.33589403       1.34685720      -1.38127213       0.00000000
Si      -1.37963987      -1.36769211      -1.37129294       0.00000000
Si      -1.44462068       1.33051833       1.34221861       0.00000000
Si       1.38347712      -1.33203330       1.52729982       0.00000000
Si      -0.67082057      -2.09184777       2.68519689       0.00000000
Si      -2.49110657      -0.37185183       2.61061192       0.00000000
Si       2.65789269      -2.71243161      -0.01626367       0.00000000
Si       2.70914103       2.67069663      -0.01108415       0.00000000
Si       2.69060301      -0.00713502      -2.73602516       0.00000000
Si      -0.02251930       2.70669753      -2.73588704       0.00000000
