10
Lattice="16.28999089631971 0.0 0.0 0.0 16.28999089631971 0.0 0.0 0.0 34.5300574570662" Properties=species:S:1:pos:R:3:initial_magmoms:R:1 pbc="T T T"
Si       0.55794879      -2.27050020       0.31170300       0.00000000
Si      -2.40140501       0.39848598      -0.05075921       0.00000000
Si       1.09217934       0.46377630       2.19635459       0.00000000
Si       0.68820363      -1.42724835      -1.98675703       0.00000000
Si      -1.26289854      -2.31049215       1.82077095       0.00000000
Si      -0.97080255      -0.28535193       3.08933691       0.00000000
Si      -2.89764728      -2.15379864      -0.27510112       0.00000000
Si      -2.50706195       1.73666061      -2.09076162       0.00000000
Si      -2.68413914       1.26586332       2.34901206       0.00000000
Si       2.63717181      -2.41368930       1.49491061       0.00000000
