10
Lattice="16.28999089631971 0.0 0.0 0.0 16.28999089631971 0.0 0.0 0.0 34.5300574570662" Properties=species:S:1:pos:R:3:initial_magmoms:R:1 pbc="T T T"
Si       0.10565694      -1.33817463       2.04000240       0.00000000
Si      -0.82154610      -1.93697874      -1.26887673       0.00000000
Si       2.05429769       0.75981447      -1.15789706       0.00000000
Si      -1.82028600       1.71999594      -0.07458497       0.00000000
Si       0.67082057       2.09184777      -2.68519689       0.00000000
Si      -2.09439783      -0.63184023      -2.70798674       0.00000000
Si       1.20316148       2.27797731       2.34283118       0.00000000
Si       2.50706195      -1.73666061       2.09076162       0.00000000
Si      -0.77380011       3.42236610      -1.34297828       0.00000000
Si      -3.51034092       0.64853748      -1.27533385       0.00000000
