10
Lattice="16.28999089631971 0.0 0.0 0.0 16.28999089631971 0.0 0.0 0.0 34.5300574570662" Properties=species:S:1:pos:R:3:initial_magmoms:R:1 pbc="T T T"
Si       1.27441557      -1.38039831      -1.54356349       0.00000000
Si      -1.38347712       1.33203330      -1.52729982       0.00000000
Si      -2.05429769      -0.75981447       1.15789706       0.00000000
Si       2.03005980       0.80811432       1.48627809       0.00000000
Si       2.61309519      -2.73675258      -0.22682807       0.00000000
Si       2.76143193       2.61894330      -0.05148434       0.00000000
Si      -2.82809780       2.66255163      -0.18508121       0.00000000
Si      -0.85113621       1.51816284       3.50072824       0.00000000
Si       2.66235615      -0.03178179      -2.90511895       0.00000000
Si      -2.87584379      -2.69679321      -0.11097967       0.00000000
