10
Lattice="16.28999089631971 0.0 0.0 0.0 16.28999089631971 0.0 0.0 0.0 34.5300574570662" Properties=species:S:1:pos:R:3:initial_magmoms:R:1 pbc="T T T"
Si       0.26303952       2.39024799      -0.04661560       0.00000000
Si      -2.27636853      -0.25099632       0.76525556       0.00000000
Si       1.71333659      -1.55121525       0.74032485       0.00000000
Si       0.28273413      -0.86737734      -2.39977127       0.00000000
Si       2.14489127       2.56469760       1.31483626       0.00000000
Si       1.38023867       2.74877460      -2.09694250       0.00000000
Si       2.68413914      -1.26586332      -2.34901206       0.00000000
Si       3.77631848      -0.80208702      -0.15265747       0.00000000
Si       1.42124060      -3.57635547      -0.52824111       0.00000000
Si      -3.90564546       0.03789054      -0.98396907       0.00000000
