10
Lattice="16.28999089631971 0.0 0.0 0.0 16.28999089631971 0.0 0.0 0.0 34.5300574570662" Properties=species:S:1:pos:R:3:initial_magmoms:R:1 pbc="T T T"
Si      -0.51825169       2.24484345      -0.14115895       0.00000000
Si      -1.11719915      -0.35852661       2.05032690       0.00000000
Si       2.35968795       0.06286311       0.23780864       0.00000000
Si      -1.20316148      -2.27797731      -2.34283118       0.00000000
Si       0.76465260      -0.18407700       3.41177876       0.00000000
Si       2.88119601      -0.71004852      -2.01445015       0.00000000
Si       2.52338616      -1.25216343       2.22708636       0.00000000
Si      -2.90497031       2.22363387       0.14578598       0.00000000
Si      -1.38023867      -2.74877460       2.09694250       0.00000000
Si      -0.84076111       2.76400575      -2.39034456       0.00000000
