10
Lattice="16.28999089631971 0.0 0.0 0.0 16.28999089631971 0.0 0.0 0.0 34.49183129400761" Properties=species:S:1:pos:R:3:initial_magmoms:R:1 pbc="T T T"
Si      -0.72158836      -1.90350835      -1.11124671       0.00000000
Si       1.45891774       0.98214202      -1.59659469       0.00000000
Si       1.45614844      -1.23752740       1.41080982       0.00000000
Si      -1.28787667       1.48040425       1.40917145       0.00000000
Si       0.04723937       2.23073794      -3.00841512       0.00000000
Si       2.68609231       2.66610448      -0.08199748       0.00000000
Si       0.08375015      -2.59526320       2.79123231       0.00000000
Si      -2.71603726      -2.69119501      -0.13337999       0.00000000
Si      -2.63492935       0.12129534       2.79488845       0.00000000
Si       2.99019403      -2.51985679      -0.16480896       0.00000000
