10
Lattice="16.28999089631971 0.0 0.0 0.0 16.28999089631971 0.0 0.0 0.0 34.49183129400761" Properties=species:S:1:pos:R:3:initial_magmoms:R:1 pbc="T T T"
Si      -1.36812380       1.32132914      -1.35846153       0.00000000
Si       0.81417420       1.81985038       1.28651153       0.00000000
Si       1.38276036      -1.39230045      -1.33897364       0.00000000
Si      -1.56266712      -1.19939427       1.41602843       0.00000000
Si      -0.24490386      -2.43815103       2.88289785       0.00000000
Si       0.00558747       2.67971803      -2.71471559       0.00000000
Si      -2.77103393       2.64099670       0.08364274       0.00000000
Si      -2.70808937      -0.03783582      -2.71892360       0.00000000
Si       2.71917567      -0.03736559      -2.71357736       0.00000000
Si       0.00319284      -2.75158692      -2.71230116       0.00000000
