10
Lattice="16.28999089631971 0.0 0.0 0.0 16.28999089631971 0.0 0.0 0.0 34.49183129400761" Properties=species:S:1:pos:R:3:initial_magmoms:R:1 pbc="T T T"
Si      -2.24769420      -0.43953678       0.32111913       0.00000000
Si       0.77726106      -0.07884360       2.20627122       0.00000000
Si       0.46206585       2.13887700      -0.95504485       0.00000000
Si       0.99988020      -1.75056901      -1.28789121       0.00000000
Si      -0.64791846       1.41747435      -3.06091030       0.00000000
Si      -2.49833214       0.86415192       2.29288026       0.00000000
Si       2.32632603      -1.82180681       2.02950049       0.00000000
Si      -3.16069983       0.42891570      -1.68437503       0.00000000
Si       2.80818423       1.82936700      -1.34476827       0.00000000
Si       2.67569766      -0.47890971      -2.38597376       0.00000000
