10
Lattice="16.28999089631971 0.0 0.0 0.0 16.28999089631971 0.0 0.0 0.0 34.49183129400761" Properties=species:S:1:pos:R:3:initial_magmoms:R:1 pbc="T T T"
Si      -0.91569348       0.77594157      -1.98045308       0.00000000
Si      -1.52339193      -1.24882398       1.37007636       0.00000000
Si       1.18330560       1.57993452       1.38902618       0.00000000
Si       1.37104785      -1.28422215      -1.60714778       0.00000000
Si      -0.44307171      -2.57772960      -2.52376871       0.00000000
Si      -2.20781628      -0.96070275      -2.79815138       0.00000000
Si      -0.05478327      -2.44455885       2.85413997       0.00000000
Si       2.37557070       2.90357847      -0.25330815       0.00000000
Si       2.63797002       0.28909863       2.87180325       0.00000000
Si       3.01959585      -2.48890023      -0.21267675       0.00000000
