10
Lattice="16.28999089631971 0.0 0.0 0.0 16.28999089631971 0.0 0.0 0.0 34.49183129400761" Properties=species:S:1:pos:R:3:initial_magmoms:R:1 pbc="T T T"
Si      -1.19226510      -1.32364395       1.64233433       0.00000000
Si      -1.70346159       1.02240927      -1.43241206       0.00000000
Si       1.01941191      -1.24335054      -1.98169478       0.00000000
Si       1.54857627       1.49402106       1.60603166       0.00000000
Si      -2.37557070      -2.90357847       0.25330815       0.00000000
Si      -2.39192586       2.94765921      -0.04894394       0.00000000
Si      -2.44200132       0.09586665       3.11934436       0.00000000
Si       2.68087788       0.20114892      -2.98885682       0.00000000
Si       2.38308039      -3.01399209      -1.34245732       0.00000000
Si       0.26239932      -2.61447984       3.12511140       0.00000000
