10
Lattice="16.28999089631971 0.0 0.0 0.0 16.28999089631971 0.0 0.0 0.0 34.49183129400761" Properties=species:S:1:pos:R:3:initial_magmoms:R:1 pbc="T T T"
Si      -1.35760860       1.35738054       1.35739229       0.00000000
Si       1.35790182      -1.35728280       1.35742678       0.00000000
Si      -1.35778779      -1.35790182      -1.35708186       0.00000000
Si       1.35739683       1.35788553      -1.35756475       0.00000000
Si      -0.00063531       2.71376739       2.71509500       0.00000000
Si       0.00263898      -2.71334385       2.71578484       0.00000000
Si      -2.71459003       2.71479366       0.00000000       0.00000000
Si      -2.71471547      -2.71482624       0.00024144       0.00000000
Si       2.71482624      -2.71477737       0.00020695       0.00000000
Si      -2.71505267      -0.00068418       2.71533644       0.00000000
