10
Lattice="16.28999089631971 0.0 0.0 0.0 16.28999089631971 0.0 0.0 0.0 34.49183129400761" Properties=species:S:1:pos:R:3:initial_magmoms:R:1 pbc="T T T"
Si       0.43277643       1.58840532      -1.68382316       0.00000000
Si      -2.02691583       0.31037337       1.18358785       0.00000000
Si       1.89076401       0.05201397       1.48984099       0.00000000
Si      -0.55741122      -2.20037175      -0.91517227       0.00000000
Si      -0.94394034      -3.20329818       1.17113629       0.00000000
Si      -1.43355258       1.25921700      -3.15793587       0.00000000
Si      -2.28618747      -1.71576054       2.43653882       0.00000000
Si       3.72514833      -0.83238642       0.24875523       0.00000000
Si       0.98183088       3.69822096      -0.67741995       0.00000000
Si      -3.57908079       1.59821190      -0.16511249       0.00000000
