10
Lattice="16.28999089631971 0.0 0.0 0.0 16.28999089631971 0.0 0.0 0.0 34.49183129400761" Properties=species:S:1:pos:R:3:initial_magmoms:R:1 pbc="T T T"
Si       1.34817669       1.35568638       1.39505394       0.00000000
Si      -1.36866951      -1.35832536       1.39557132       0.00000000
Si      -1.16893782       1.43094618      -1.56260845       0.00000000
Si       1.48274838      -1.33076268      -1.52535035       0.00000000
Si       2.70088200      -2.71117728       0.01820825       0.00000000
Si      -2.70298341       2.71327556       0.01301033       0.00000000
Si      -2.72083725      -2.69749368       0.02692089       0.00000000
Si       2.70391194       2.72381290       0.02973542       0.00000000
Si       2.70809847       0.00087966       2.75617135       0.00000000
Si      -0.00786807      -2.71428867       2.75575744       0.00000000
