10
Lattice="16.28999089631971 0.0 0.0 0.0 16.28999089631971 0.0 0.0 0.0 34.49183129400761" Properties=species:S:1:pos:R:3:initial_magmoms:R:1 pbc="T T T"
Si       1.36425492       1.34307792      -1.37694917       0.00000000
Si      -1.34698752      -1.37500632      -1.37522457       0.00000000
Si       1.36878354      -1.37883447       1.35666796       0.00000000
Si      -1.19234655       1.49301108       1.49604953       0.00000000
Si      -2.68931610       2.70506853      -0.00072433       0.00000000
Si       2.72376945       2.69962767      -0.03642339       0.00000000
Si      -2.69777061      -2.73735531      -0.00996814       0.00000000
Si       0.00728163       2.70223407      -2.73465188       0.00000000
Si      -2.70871749      -0.01457955      -2.73499680       0.00000000
Si       2.72406267      -0.01260846      -2.73496231       0.00000000
