10
Lattice="16.28999089631971 0.0 0.0 0.0 16.28999089631971 0.0 0.0 0.0 34.49183129400761" Properties=species:S:1:pos:R:3:initial_magmoms:R:1 pbc="T T T"
Si       1.78466724      -0.38667573      -1.49742920       0.00000000
Si      -0.27763047      -2.13306147       1.05803752       0.00000000
Si       0.95205276       1.65641607       1.47183625       0.00000000
Si      -2.12822334       0.47614041      -1.06576369       0.00000000
Si       1.25211456      -2.69835705      -1.74111412       0.00000000
Si       3.55104081      -0.48456234       0.06491366       0.00000000
Si      -2.16593469      -1.60862121       2.39711463       0.00000000
Si      -1.00062954       2.57525352       2.35527602       0.00000000
Si      -1.99358649       2.80269450      -1.44010374       0.00000000
Si      -1.61688024       0.50119443       3.40351785       0.00000000
