10
Lattice="16.28999089631971 0.0 0.0 0.0 16.28999089631971 0.0 0.0 0.0 34.49183129400761" Properties=species:S:1:pos:R:3:initial_magmoms:R:1 pbc="T T T"
Si      -0.28744910       1.19024514       2.00107920       0.00000000
Si       2.17646780       0.35691064      -0.82107850       0.00000000
Si       0.04701131      -2.22383979       0.81645659       0.00000000
Si      -1.67866562       1.11028242      -1.25643464       0.00000000
Si       3.61274081      -0.79165557       0.68476671       0.00000000
Si       2.56255709       2.67575956      -0.82607982       0.00000000
Si       2.31864692      -0.69574005      -2.92732336       0.00000000
Si       1.32445193      -3.57913521      -0.63827169       0.00000000
Si      -0.26338030       3.51919060       1.74045878       0.00000000
Si       1.36908653      -2.32039062       2.86851475       0.00000000
