10
Lattice="16.28999089631971 0.0 0.0 0.0 16.28999089631971 0.0 0.0 0.0 34.49183129400761" Properties=species:S:1:pos:R:3:initial_magmoms:R:1 pbc="T T T"
Si      -0.21528864      -0.49246299      -2.28294661       0.00000000
Si       1.72942785      -1.41270138       0.77830861       0.00000000
Si      -1.74801474      -1.05691149       1.25446861       0.00000000
Si       1.01613762       2.14745436       0.48140276       0.00000000
Si       0.09135432       2.13805828       2.57912813       0.00000000
Si       1.85114673       0.34355610      -3.20508623       0.00000000
Si       3.11186241      -0.02365308       2.05223062       0.00000000
Si       3.32174277       1.65342915       0.37151172       0.00000000
Si      -2.26623222       2.23847473       2.16412218       0.00000000
Si      -3.56697243       0.38571462       1.40802632       0.00000000
