10
Lattice="16.28999089631971 0.0 0.0 0.0 16.28999089631971 0.0 0.0 0.0 34.49183129400761" Properties=species:S:1:pos:R:3:initial_magmoms:R:1 pbc="T T T"
Si       1.79719425       1.01786436      -1.04683422       0.00000000
Si       1.43832555      -1.26268677       1.35102164       0.00000000
Si      -1.27804824       1.47408210       1.31575717       0.00000000
Si      -0.89642241      -1.30391676      -1.76872282       0.00000000
Si       0.84263283       1.07456985      -3.15181154       0.00000000
Si      -2.48508837      -2.60443217      -0.20890334       0.00000000
Si       0.09951561      -2.60893635       2.69815950       0.00000000
Si      -2.61754236       0.10907784       2.69005392       0.00000000
Si       3.57208749      -0.70079580      -1.06334236       0.00000000
Si       2.79639027      -2.64714455       0.05435571       0.00000000
