10
Lattice="16.28999089631971 0.0 0.0 0.0 16.28999089631971 0.0 0.0 0.0 34.49183129400761" Properties=species:S:1:pos:R:3:initial_magmoms:R:1 pbc="T T T"
Si      -1.36656810      -1.34806266      -1.36980935       0.00000000
Si      -1.17851634       1.35099486       1.53350768       0.00000000
Si       1.34846991       1.36800162      -1.37112004       0.00000000
Si       1.51001784      -1.20839220       1.41206187       0.00000000
Si       0.84800853       2.16367038       3.02496979       0.00000000
Si       2.70734913      -2.69945500      -0.00400105       0.00000000
Si      -2.70008379       2.71736748       0.00800211       0.00000000
Si       2.62659960       0.41697513       2.76072772       0.00000000
Si      -2.71995759      -2.70488445       0.01759084       0.00000000
Si       0.26103096      -2.69369159       2.72823640       0.00000000
