10
Lattice="16.28999089631971 0.0 0.0 0.0 16.28999089631971 0.0 0.0 0.0 34.49183129400761" Properties=species:S:1:pos:R:3:initial_magmoms:R:1 pbc="T T T"
Si      -1.35599589       1.35870003      -1.36197970       0.00000000
Si       1.35925389      -1.35843450      -1.36142783       0.00000000
Si       1.36656810       1.34806266       1.36980935       0.00000000
Si      -1.35338949      -1.35682179       1.38740020       0.00000000
Si      -2.71005327       2.71129131      -0.00517378       0.00000000
Si      -2.71497285      -2.71426546      -0.00148315       0.00000000
Si       2.71503801       2.71606428      -0.00131069       0.00000000
Si      -2.71236645       0.00042354      -2.71885461       0.00000000
Si       2.71766070      -2.71582712      -0.00444945       0.00000000
Si       0.00224802       2.71500543      -2.71854419       0.00000000
