10
Lattice="16.28999089631971 0.0 0.0 0.0 16.28999089631971 0.0 0.0 0.0 34.49183129400761" Properties=species:S:1:pos:R:3:initial_magmoms:R:1 pbc="T T T"
Si       0.65073663      -1.65560061       1.50215458       0.00000000
Si      -0.97837740      -1.70222259      -1.40606029       0.00000000
Si      -1.89591165       1.11183323       1.17282639       0.00000000
Si       2.19559878       1.17272525      -0.34091745       0.00000000
Si      -2.23635636      -0.15974300      -2.65121609       0.00000000
Si      -0.15685641       3.49031984      -0.21026232       0.00000000
Si       1.79690103      -0.23139456       2.99590492       0.00000000
Si       2.57259825       1.71495419       1.87820685       0.00000000
Si       1.54779435      -3.38325285       0.03956215       0.00000000
Si      -2.57619834      -2.96132556      -0.04190760       0.00000000
