10
Lattice="16.28999089631971 0.0 0.0 0.0 16.28999089631971 0.0 0.0 0.0 34.49183129400761" Properties=species:S:1:pos:R:3:initial_magmoms:R:1 pbc="T T T"
Si      -1.35824391      -1.35630540       1.35656448       0.00000000
Si      -1.35757602       1.35759231      -1.35749576       0.00000000
Si       1.35757602      -1.35762489      -1.35766822       0.00000000
Si       1.35676152       1.35915615       1.35822009       0.00000000
Si      -2.71230129      -0.00371412       2.71337041       0.00000000
Si      -2.71461447      -2.71458189      -0.00031043       0.00000000
Si      -2.71450044       2.71508688      -0.00027593       0.00000000
Si      -2.71425609       0.00009774      -2.71533644       0.00000000
Si       2.71518462      -0.00014661      -2.71454313       0.00000000
Si       2.71278999       0.00105885       2.71723350       0.00000000
