10
Lattice="16.28999089631971 0.0 0.0 0.0 16.28999089631971 0.0 0.0 0.0 34.49183129400761" Properties=species:S:1:pos:R:3:initial_magmoms:R:1 pbc="T T T"
Si      -1.35728280       1.35586557       1.35873747       0.00000000
Si       1.35861858       1.35593073      -1.35828908       0.00000000
Si       1.35602847      -1.35809730       1.35901340       0.00000000
Si      -1.35676152      -1.35915615      -1.35822009       0.00000000
Si      -0.00187335       2.69667918       2.72606341       0.00000000
Si      -2.71148679       2.71371852      -0.00279384       0.00000000
Si       0.00136836       2.71365336      -2.71588831       0.00000000
Si      -2.71433754      -0.00156384      -2.71571585       0.00000000
Si      -2.71500543      -2.71546155      -0.00165561       0.00000000
Si      -2.69252523      -0.00873144       2.73813556       0.00000000
