10
Lattice="16.28999089631971 0.0 0.0 0.0 16.28999089631971 0.0 0.0 0.0 34.49183129400761" Properties=species:S:1:pos:R:3:initial_magmoms:R:1 pbc="T T T"
Si       0.51650703       1.91140344      -1.53674991       0.00000000
Si       1.77859107      -1.74669525      -0.26424207       0.00000000
Si       0.59517144       0.09428652       2.49955543       0.00000000
Si      -2.02652487      -0.81267552      -1.49146211       0.00000000
Si       1.86017139       0.58702644      -3.03614515       0.00000000
Si       3.31234344      -0.62977140      -1.66654274       0.00000000
Si       0.66200931      -3.37206258      -1.61290792       0.00000000
Si      -0.84800853      -2.16367038      -3.02496979       0.00000000
Si       3.02656797       0.29766717       2.56226161       0.00000000
Si       1.29717270       3.92238765      -0.32660333       0.00000000
