10
Lattice="16.28999089631971 0.0 0.0 0.0 16.28999089631971 0.0 0.0 0.0 34.49183129400761" Properties=species:S:1:pos:R:3:initial_magmoms:R:1 pbc="T T T"
Si      -2.34611838       0.30951000       0.38972342       0.00000000
Si       1.42659675      -0.23913720       1.94561631       0.00000000
Si       0.57391299       2.01476349      -1.28754629       0.00000000
Si      -0.13248657      -2.30827671      -1.04120549       0.00000000
Si       0.35305317       1.40004405       3.30283614       0.00000000
Si      -2.80818423      -1.82936700       1.34476827       0.00000000
Si      -0.99727380       3.02477607       2.05447259       0.00000000
Si      -3.45610269      -0.41189265      -1.71614203       0.00000000
Si      -0.12308724       3.90367044       0.00720880       0.00000000
Si       3.00530952       2.21814414      -1.22484011       0.00000000
