10
Lattice="16.28999089631971 0.0 0.0 0.0 16.28999089631971 0.0 0.0 0.0 34.49183129400761" Properties=species:S:1:pos:R:3:initial_magmoms:R:1 pbc="T T T"
Si       1.59254298       1.59539373       0.71246367       0.00000000
Si      -1.92818214       0.50881815      -1.32003761       0.00000000
Si      -1.37679822      -0.45892188       1.91960945       0.00000000
Si       1.51975926      -1.43803233      -1.20921530       0.00000000
Si      -2.70839169      -1.77932412      -1.62311750       0.00000000
Si       3.34015047      -0.11782557      -1.79878450       0.00000000
Si       3.10430385       2.05840440      -1.00954197       0.00000000
Si       0.55845378       3.40956216       1.73321549       0.00000000
Si       0.50329584      -2.00972988      -3.28358968       0.00000000
Si      -3.66471243      -0.41475969       1.40509452       0.00000000
