10
Lattice="16.28999089631971 0.0 0.0 0.0 16.28999089631971 0.0 0.0 0.0 34.49183129400761" Properties=species:S:1:pos:R:3:initial_magmoms:R:1 pbc="T T T"
Si      -0.52269723       1.98764064      -1.06134873       0.00000000
Si      -0.49941882      -1.78134408      -1.47383677       0.00000000
Si      -1.50415344      -0.05180220       1.86959627       0.00000000
Si       2.33984673       0.04567716       0.61367901       0.00000000
Si      -0.61455654       3.44544903       0.82307903       0.00000000
Si      -2.81061144       2.03180283      -1.57586367       0.00000000
Si      -3.66321375      -0.19187991       1.07162731       0.00000000
Si      -0.49104576       1.54105029       3.46812108       0.00000000
Si       1.08108585      -1.92971340      -3.18725394       0.00000000
Si      -0.28209393      -3.87025802      -0.43132059       0.00000000
