10
Lattice="16.28999089631971 0.0 0.0 0.0 16.28999089631971 0.0 0.0 0.0 34.49183129400761" Properties=species:S:1:pos:R:3:initial_magmoms:R:1 pbc="T T T"
Si      -1.27361736       1.31548266       1.51535806       0.00000000
Si       1.38232053       1.41322266      -1.39666613       0.00000000
Si       1.44067131      -1.39124745       1.50830448       0.00000000
Si      -1.54857627      -1.49402106      -1.60603166       0.00000000
Si      -2.49175098       2.69589726      -0.02820054       0.00000000
Si       2.72759760       2.57051313       0.14436219       0.00000000
Si      -2.62298322      -0.04557942       2.89127248       0.00000000
Si       2.72758131       0.08400753      -2.81690257       0.00000000
Si      -2.74084137      -2.81766501       0.03630267       0.00000000
Si       0.09021402       2.67072921       2.89375589       0.00000000
