10
Lattice="16.28999089631971 0.0 0.0 0.0 16.28999089631971 0.0 0.0 0.0 34.49183129400761" Properties=species:S:1:pos:R:3:initial_magmoms:R:1 pbc="T T T"
Si      -1.91122425      -0.10733481      -1.26309157       0.00000000
Si       0.53255268       2.31168132       0.24368492       0.00000000
Si       1.82966022      -1.34597754       0.81162774       0.00000000
Si      -2.21148153      -1.06679952       1.18676110       0.00000000
Si      -1.52974503       0.56529558       2.79915164       0.00000000
Si      -1.25211456       2.69835705       1.74111412       0.00000000
Si       2.29892625       2.21379471       1.80602779       0.00000000
Si       3.55045437       0.34977888       1.02809859       0.00000000
Si       0.95547366      -2.22487191       2.85889153       0.00000000
Si      -1.39805667      -0.43606701      -3.48267664       0.00000000
