10
Lattice="16.28999089631971 0.0 0.0 0.0 16.28999089631971 0.0 0.0 0.0 34.49183129400761" Properties=species:S:1:pos:R:3:initial_magmoms:R:1 pbc="T T T"
Si       1.64007720      -0.12010617       1.71045087       0.00000000
Si      -1.25152812       1.86401583       0.77792920       0.00000000
Si      -1.72079415      -1.69575642      -0.21647085       0.00000000
Si       0.88583391       0.26013501      -2.29167304       0.00000000
Si      -1.64616966       1.05481008       2.97226624       0.00000000
Si       1.72722870       2.52398889      -2.05123035       0.00000000
Si      -3.01790169       1.96190244      -0.78441367       0.00000000
Si      -3.55045437      -0.34977888      -1.02809859       0.00000000
Si       0.65594943       1.12091490       3.50450999       0.00000000
Si       3.70367811       0.35015355       0.78030914       0.00000000
