10
Lattice="16.28999089631971 0.0 0.0 0.0 16.28999089631971 0.0 0.0 0.0 34.49183129400761" Properties=species:S:1:pos:R:3:initial_magmoms:R:1 pbc="T T T"
Si      -1.02745917       2.04538869       0.17304561       0.00000000
Si      -1.73973942      -1.11733110      -1.08918366       0.00000000
Si       0.09365121      -0.53804241       2.29726072       0.00000000
Si       2.09712573      -0.51064263      -0.97408435       0.00000000
Si      -3.09389454       1.20936960       1.09518524       0.00000000
Si      -0.62449344      -2.87942040      -2.08058292       0.00000000
Si       1.67762565      -2.81331558      -1.54833917       0.00000000
Si      -3.46866228      -1.12187601       0.51130719       0.00000000
Si       2.37245931      -0.76510872       2.82843522       0.00000000
Si      -1.05788889       3.10515975      -1.90226005       0.00000000
