10
Lattice="16.28999089631971 0.0 0.0 0.0 16.28999089631971 0.0 0.0 0.0 34.49183129400761" Properties=species:S:1:pos:R:3:initial_magmoms:R:1 pbc="T T T"
Si      -1.38243456      -1.38904830      -1.27392201       0.00000000
Si       2.00919231      -0.95843844       0.75978648       0.00000000
Si       0.20988036       1.67708223      -1.68071889       0.00000000
Si      -1.76252913       0.61923177       1.77205331       0.00000000
Si      -2.09572479       2.17110744      -1.57082786       0.00000000
Si       0.76364262      -1.06179849       3.21767576       0.00000000
Si       1.42069977      -3.20929290       1.06503936       0.00000000
Si       2.20696920       2.74984064      -1.06041745       0.00000000
Si       3.36282615      -1.05119370      -1.19569449       0.00000000
Si      -3.11186241       0.02365308      -2.05223062       0.00000000
