10
Lattice="16.28999089631971 0.0 0.0 0.0 16.28999089631971 0.0 0.0 0.0 34.49183129400761" Properties=species:S:1:pos:R:3:initial_magmoms:R:1 pbc="T T T"
Si      -0.37699947      -0.54222894      -2.21912430       0.00000000
Si      -0.77569722      -1.94634875       1.11769807       0.00000000
Si       2.01293901       0.93546954       0.90905342       0.00000000
Si      -1.77489324       1.71866016       0.01650814       0.00000000
Si      -2.13376194      -0.56189097       2.41436401       0.00000000
Si       0.62423280       2.17826622       2.39904273       0.00000000
Si      -2.57259825      -1.71495419      -1.87820685       0.00000000
Si      -0.74546298       1.48572945      -3.30810101       0.00000000
Si      -0.64606140       3.58575480       1.03044404       0.00000000
Si      -3.57208749       0.70079580       1.06334236       0.00000000
