10
Lattice="16.28999089631971 0.0 0.0 0.0 16.28999089631971 0.0 0.0 0.0 34.49183129400761" Properties=species:S:1:pos:R:3:initial_magmoms:R:1 pbc="T T T"
Si      -0.04409703      -2.34306793       0.15386815       0.00000000
Si      -1.68593355       1.35849966       0.96559936       0.00000000
Si       1.41581277       0.70356836       1.77236374       0.00000000
Si       0.48472524       0.26602710      -2.31240265       0.00000000
Si      -0.51178293       1.39691148       3.07701799       0.00000000
Si       2.12716449      -2.75478139      -0.81486997       0.00000000
Si       2.44235970      -1.01794159      -2.43715967       0.00000000
Si       0.66526731       3.52340808      -0.70897999       0.00000000
Si      -1.95365970      -2.90026738      -1.19010681       0.00000000
Si       2.06316108       2.90098347       1.10898198       0.00000000
