10
Lattice="16.28999089631971 0.0 0.0 0.0 16.28999089631971 0.0 0.0 0.0 34.49183129400761" Properties=species:S:1:pos:R:3:initial_magmoms:R:1 pbc="T T T"
Si       1.67866562      -1.11028242       1.25643464       0.00000000
Si      -1.41581277      -0.70356836      -1.77236374       0.00000000
Si       0.64734831       2.19741511      -0.66338176       0.00000000
Si      -1.92759570       0.69334313       1.30465425       0.00000000
Si      -3.10174632       0.65493130      -0.80676438       0.00000000
Si       1.39121652       0.07996272       3.25751384       0.00000000
Si       0.11178198       3.37071866       1.32383172       0.00000000
Si      -1.45990980      -3.04663629      -1.61849560       0.00000000
Si      -0.75054546       2.81983972      -2.48134373       0.00000000
Si       3.85513343      -0.75337177       0.43535614       0.00000000
