10
Lattice="16.28999089631971 0.0 0.0 0.0 16.28999089631971 0.0 0.0 0.0 34.49183129400761" Properties=species:S:1:pos:R:3:initial_magmoms:R:1 pbc="T T T"
Si      -0.57143691      -2.22946636       0.51096227       0.00000000
Si       1.20101448       0.99567086      -1.79081688       0.00000000
Si      -1.72729386       1.57156798       0.64623931       0.00000000
Si       1.93208264       0.11483310       1.52457429       0.00000000
Si       3.02048270       1.04331911      -0.32367153       0.00000000
Si      -1.15898463       1.39039060       2.93953347       0.00000000
Si       1.14683229       1.90315093       2.87424040       0.00000000
Si      -3.72438270       0.49880957       0.02593787       0.00000000
Si      -1.92507075      -2.13671110       2.46644325       0.00000000
Si       1.35552089      -3.63255664       0.52520741       0.00000000
