10
Lattice="16.28999089631971 0.0 0.0 0.0 16.28999089631971 0.0 0.0 0.0 34.49183129400761" Properties=species:S:1:pos:R:3:initial_magmoms:R:1 pbc="T T T"
Si      -1.99708884      -1.07275840      -0.62030144       0.00000000
Si       0.56830923      -0.18117738       2.29329416       0.00000000
Si       1.72729386      -1.57156798      -0.64623931       0.00000000
Si      -0.11373678       2.23024761      -0.96073601       0.00000000
Si       2.87412615       0.33158295       2.22800109       0.00000000
Si      -2.20696920      -2.74984064       1.06041745       0.00000000
Si      -1.68075333       3.33720198       0.53458919       0.00000000
Si       2.14752699       2.99156076      -0.83377150       0.00000000
Si      -2.10691602      -0.89445946      -3.01662276       0.00000000
Si       2.92830834      -0.57589711      -2.43705619       0.00000000
