10
Lattice="16.28999089631971 0.0 0.0 0.0 16.28999089631971 0.0 0.0 0.0 34.49183129400761" Properties=species:S:1:pos:R:3:initial_magmoms:R:1 pbc="T T T"
Si       1.35692768       1.35692442      -1.35732330       0.00000000
Si      -1.35739791       1.35783666       1.35677143       0.00000000
Si       1.35770960      -1.35744570       1.35742678       0.00000000
Si      -1.35922686      -1.35656604      -1.35759924       0.00000000
Si      -2.71447179      -0.00079821      -2.71254260       0.00000000
Si       0.00076400      -2.71423980       2.71412923       0.00000000
Si      -2.71463469       0.00084708       2.71423271       0.00000000
Si      -0.00033720       2.71414206       2.71509500       0.00000000
Si       2.71476434      -2.71467963       0.00024144       0.00000000
Si       2.71471547       2.71482624      -0.00024144       0.00000000
