10
Lattice="16.28999089631971 0.0 0.0 0.0 16.28999089631971 0.0 0.0 0.0 34.49183129400761" Properties=species:S:1:pos:R:3:initial_magmoms:R:1 pbc="T T T"
Si       1.33284780       1.34397387       1.35914792       0.00000000
Si      -1.27029420       1.40748858      -1.36859869       0.00000000
Si      -1.38448710      -1.37039625       1.35155972       0.00000000
Si       1.38870621      -1.24279668      -1.48998931       0.00000000
Si      -0.62423280      -2.17826622      -2.39904273       0.00000000
Si      -2.39912604      -0.45960606      -2.38253458       0.00000000
Si       2.69304651       2.68848531      -0.03413658       0.00000000
Si       2.68809272      -0.01179396       2.71409129       0.00000000
Si       2.68029144      -2.72701116      -0.03050114       0.00000000
Si      -0.02472822       2.70166392       2.71460867       0.00000000
