10
Lattice="16.28999089631971 0.0 0.0 0.0 16.28999089631971 0.0 0.0 0.0 34.49183129400761" Properties=species:S:1:pos:R:3:initial_magmoms:R:1 pbc="T T T"
Si       1.35738054      -1.35682668      -1.35766822       0.00000000
Si      -1.35703845       1.35785295      -1.35732330       0.00000000
Si      -1.35679410      -1.35795069       1.35790967       0.00000000
Si       1.35801585       1.35860229       1.35704737       0.00000000
Si       2.71342367       0.00118917      -2.71478457       0.00000000
Si       0.00060273       2.71464705      -2.71426720       0.00000000
Si      -2.71503801       0.00006516      -2.71426720       0.00000000
Si      -2.71479366      -2.71458189      -0.00010348       0.00000000
Si      -0.00042354      -2.71505430      -2.71475008       0.00000000
Si      -2.71484253       2.71529865       0.00020695       0.00000000
