10
Lattice="16.28999089631971 0.0 0.0 0.0 16.28999089631971 0.0 0.0 0.0 34.49183129400761" Properties=species:S:1:pos:R:3:initial_magmoms:R:1 pbc="T T T"
Si       1.35682607      -1.35423657      -1.36146233       0.00000000
Si      -1.35736716      -1.34814411       1.36901604       0.00000000
Si      -1.35857262       1.36085031      -1.36135885       0.00000000
Si       1.37230320       1.36001952       1.37105106       0.00000000
Si      -2.62213905       0.16941600       2.72865030       0.00000000
Si       2.71237073      -2.70972747      -0.00220748       0.00000000
Si       2.71211009       2.71682991      -0.00227646       0.00000000
Si      -2.71583913      -2.71334385      -0.00072433       0.00000000
Si      -0.00128979      -2.71277370      -2.71816478       0.00000000
Si       2.71377167       0.00255753      -2.71816478       0.00000000
