10
Lattice="16.28999089631971 0.0 0.0 0.0 16.28999089631971 0.0 0.0 0.0 34.49183129400761" Properties=species:S:1:pos:R:3:initial_magmoms:R:1 pbc="T T T"
Si       1.35493521      -1.35668007       1.35922036       0.00000000
Si       1.33517727       1.36091547      -1.37844266       0.00000000
Si      -1.35829278       1.35829278       1.36087596       0.00000000
Si      -1.34381097      -1.37165058      -1.38562387       0.00000000
Si      -2.71394658       2.71106325       0.00155213       0.00000000
Si       2.71385766      -2.71510317      -0.00124171       0.00000000
Si      -2.71417464      -2.71564074      -0.00072433       0.00000000
Si       2.71399449       0.00022806       2.71688858       0.00000000
Si      -0.00118917      -2.71450044       2.71685409       0.00000000
Si       2.71846773       2.71314837      -0.00300079       0.00000000
