10
Lattice="16.28999089631971 0.0 0.0 0.0 16.28999089631971 0.0 0.0 0.0 34.49183129400761" Properties=species:S:1:pos:R:3:initial_magmoms:R:1 pbc="T T T"
Si      -0.72371583      -1.88160903      -1.23387697       0.00000000
Si      -0.55456047      -0.34334433       2.32095662       0.00000000
Si       1.95958926       0.77037039      -1.20528323       0.00000000
Si      -1.79403399       1.77847704      -0.07564063       0.00000000
Si      -2.02812129      -0.56669652      -2.69819399       0.00000000
Si       0.68017266       2.16101511      -2.66887592       0.00000000
Si      -1.39595526      -2.60719821       2.08051393       0.00000000
Si      -2.60358183      -2.62389546       0.03480228       0.00000000
Si      -2.55599874       1.58820984       2.23534785       0.00000000
Si      -3.44175120       0.73226808      -1.42282333       0.00000000
