10
Lattice="16.28999089631971 0.0 0.0 0.0 16.28999089631971 0.0 0.0 0.0 34.49183129400761" Properties=species:S:1:pos:R:3:initial_magmoms:R:1 pbc="T T T"
Si      -0.58849254      -2.25085446       0.30525288       0.00000000
Si      -2.00919231       0.95843844      -0.75978648       0.00000000
Si       1.35363384      -0.09275526      -1.95548098       0.00000000
Si      -1.24554969      -0.10336005       2.45788927       0.00000000
Si       0.76608612       3.52710170       0.47309022       0.00000000
Si       0.13001049      -1.48484979      -3.36171372       0.00000000
Si      -0.45686934      -3.27733623      -1.82020394       0.00000000
Si       1.92507075       2.13671110      -2.46644325       0.00000000
Si       0.72738108      -3.21988140       1.97145070       0.00000000
Si      -2.75753862      -2.04470451       1.88294461       0.00000000
