10
Lattice="16.28999089631971 0.0 0.0 0.0 16.28999089631971 0.0 0.0 0.0 34.49183129400761" Properties=species:S:1:pos:R:3:initial_magmoms:R:1 pbc="T T T"
Si      -0.38652912      -1.00292643       2.08630857       0.00000000
Si       1.86150717      -1.20643740      -0.80083179       0.00000000
Si      -1.82021202      -0.66673341      -1.42171959       0.00000000
Si       0.55741122       2.20037175       0.91517227       0.00000000
Si       1.94132817      -1.35839052       2.58264630       0.00000000
Si      -1.46950461       2.51074512       2.09876012       0.00000000
Si       1.05446799      -3.51582183      -0.46481218       0.00000000
Si       3.50235000      -0.92015694       0.86084761       0.00000000
Si      -3.63455312       0.71853561      -0.73067536       0.00000000
Si      -1.72877625       0.48461121       3.35171109       0.00000000
