10
Lattice="16.28999089631971 0.0 0.0 0.0 16.28999089631971 0.0 0.0 0.0 34.49183129400761" Properties=species:S:1:pos:R:3:initial_magmoms:R:1 pbc="T T T"
Si       0.81331083      -0.64395999       2.11003896       0.00000000
Si       0.67782690      -1.47196440      -1.70924365       0.00000000
Si      -2.26340265      -0.34223661       0.56794281       0.00000000
Si       0.55708542       2.21967540      -0.66779672       0.00000000
Si       3.24394173       0.24404049       0.27669363       0.00000000
Si      -3.21470837       0.13595634      -1.54961537       0.00000000
Si       2.96144055      -1.67102820      -1.17617210       0.00000000
Si      -0.15213231       3.54667509       1.09128766       0.00000000
Si       2.10543363       1.09268433       2.92773726       0.00000000
Si       2.86642098       2.42678646      -0.42838878       0.00000000
