10
Lattice="16.28999089631971 0.0 0.0 0.0 16.28999089631971 0.0 0.0 0.0 34.49183129400761" Properties=species:S:1:pos:R:3:initial_magmoms:R:1 pbc="T T T"
Si       1.08807100      -1.78483014      -1.20942225       0.00000000
Si      -1.53863027      -1.05094935       1.74867616       0.00000000
Si       1.18426834       1.54437345       1.66303979       0.00000000
Si      -0.57843251       1.09861389      -2.37352221       0.00000000
Si      -2.93531858       1.40134725      -1.93499282       0.00000000
Si       2.49974937      -3.03342606       0.20239818       0.00000000
Si       3.04249959      -1.06134237      -2.45123234       0.00000000
Si       2.47880043       0.17420526       3.19901363       0.00000000
Si      -0.03421389      -0.75961899      -3.99332849       0.00000000
Si      -0.24704504      -2.53516383       3.20816432       0.00000000
