10
Lattice="16.28999089631971 0.0 0.0 0.0 16.28999089631971 0.0 0.0 0.0 34.49183129400761" Properties=species:S:1:pos:R:3:initial_magmoms:R:1 pbc="T T T"
Si      -1.35723678      -1.35698958       1.35746127       0.00000000
Si       1.35706070       1.35630540       1.35832357       0.00000000
Si      -1.35766032       1.35705474      -1.35704737       0.00000000
Si       1.35739791      -1.35783666      -1.35677143       0.00000000
Si       2.71432558      -0.00091224      -2.71409474       0.00000000
Si      -2.71464990      -0.00094482      -2.71385329       0.00000000
Si      -0.00182896      -2.71440270      -2.71437067       0.00000000
Si       2.71450477       2.71437012       0.00037941       0.00000000
Si      -0.00153594       2.71487511      -2.71468110       0.00000000
Si       2.71344592      -0.00100998       2.71654366       0.00000000
