10
Lattice="16.28999089631971 0.0 0.0 0.0 16.28999089631971 0.0 0.0 0.0 34.49183129400761" Properties=species:S:1:pos:R:3:initial_magmoms:R:1 pbc="T T T"
Si      -0.00816129       0.90101619       2.15084282       0.00000000
Si      -0.62104485      -2.17903185       0.67010767       0.00000000
Si       2.13736692       0.56202129      -0.84198056       0.00000000
Si      -1.61411324       0.50140620      -1.69768889       0.00000000
Si      -2.90620346      -2.09316726      -0.13807088       0.00000000
Si       1.80057117       2.60522712      -1.93995964       0.00000000
Si       0.64096752       3.16822581       1.86838905       0.00000000
Si      -3.67771415       0.03114648      -0.76754715       0.00000000
Si       1.19329626      -3.56430087      -0.02093655       0.00000000
Si       1.54400367      -0.38682234       3.49954316       0.00000000
