10
Lattice="16.28999089631971 0.0 0.0 0.0 16.28999089631971 0.0 0.0 0.0 34.49183129400761" Properties=species:S:1:pos:R:3:initial_magmoms:R:1 pbc="T T T"
Si       1.35531171       1.35738054       1.35708186       0.00000000
Si      -1.35902420      -1.35780408       1.35652999       0.00000000
Si       1.35656604      -1.36088452      -1.35915137       0.00000000
Si      -1.35843450       1.35742941      -1.36325590       0.00000000
Si       2.71220355      -2.71433593      -0.00082780       0.00000000
Si       2.71305063      -0.00006516       2.71399126       0.00000000
Si       2.71340901       2.71461447      -0.00103476       0.00000000
Si      -0.00174303       2.71461447       2.71426720       0.00000000
Si      -0.00239463      -2.71511803       2.71433618       0.00000000
Si      -2.71576560      -2.71450332      -0.00037941       0.00000000
