10
Lattice="16.28999089631971 0.0 0.0 0.0 16.28999089631971 0.0 0.0 0.0 34.3005442915855" Properties=species:S:1:pos:R:3:initial_magmoms:R:1 pbc="T T T"
Si      -1.36218609       1.33064865       1.36024029       0.00000000
Si       1.34143263      -1.41651324       1.33836340       0.00000000
Si      -1.79395254      -0.98347617      -1.21100746       0.00000000
Si       1.59479100       1.19348685      -1.42950826       0.00000000
Si       0.14330313       2.41093629      -2.78338580       0.00000000
Si      -2.35507788       2.84402223      -0.19187392       0.00000000
Si      -3.32086311       0.98732061      -1.39613382       0.00000000
Si      -0.01379763       2.66090634       2.71494105       0.00000000
Si       2.70252729      -0.05367555       2.70811524       0.00000000
Si      -2.72862387      -0.05426199       2.70718912       0.00000000
