10
Lattice="16.28999089631971 0.0 0.0 0.0 16.28999089631971 0.0 0.0 0.0 34.3005442915855" Properties=species:S:1:pos:R:3:initial_magmoms:R:1 pbc="T T T"
Si       0.51062634      -1.62039888      -1.55288941       0.00000000
Si      -1.67263276      -0.74800422       1.42731505       0.00000000
Si       2.03576130       0.24272100       1.17884177       0.00000000
Si      -0.02565675       2.24676567      -0.84396536       0.00000000
Si       1.37824803       2.52301149       1.33346871       0.00000000
Si      -2.25203223       1.19319363       2.57542351       0.00000000
Si      -0.08420301       1.90073349       3.15458852       0.00000000
Si       3.57485679      -0.84292605      -0.39682322       0.00000000
Si      -1.03104297      -1.52300097      -3.31864812       0.00000000
Si      -0.72396018      -2.44808238       2.85970658       0.00000000
