10
Lattice="16.28999089631971 0.0 0.0 0.0 16.28999089631971 0.0 0.0 0.0 34.3005442915855" Properties=species:S:1:pos:R:3:initial_magmoms:R:1 pbc="T T T"
Si      -2.01448656       1.25102313      -0.13068515       0.00000000
Si       0.86965794       1.27009872       1.83758409       0.00000000
Si       0.64233099      -1.53731988      -1.78318339       0.00000000
Si       1.57700232      -2.78436825       0.04026886       0.00000000
Si      -0.54260361       3.19433868       0.22147874       0.00000000
Si       1.66671135      -0.83440638       2.68425919       0.00000000
Si       0.32768964      -2.75170680       2.06489392       0.00000000
Si      -3.27282390       0.33798492       1.61775178       0.00000000
Si       2.76586281       1.64328633      -1.89215628       0.00000000
Si       0.72518193       3.12826644      -1.95338279       0.00000000
