10
Lattice="16.28999089631971 0.0 0.0 0.0 16.28999089631971 0.0 0.0 0.0 34.3005442915855" Properties=species:S:1:pos:R:3:initial_magmoms:R:1 pbc="T T T"
Si       0.86970681      -2.02333203       0.74631166       0.00000000
Si      -1.84321350      -0.40692420       1.38670318       0.00000000
Si       1.54108287       1.84062339      -0.13655054       0.00000000
Si      -0.70560135      -0.09384669      -2.30163641       0.00000000
Si      -1.35757602      -2.89875663       1.36046325       0.00000000
Si      -1.71250254       2.02799097      -2.57144464       0.00000000
Si      -3.84217569       0.04165353       0.21238909       0.00000000
Si       2.35476837      -2.91527469      -0.89915497       0.00000000
Si       2.87741673       2.12613822       1.73519690       0.00000000
Si      -2.33903223       0.87247611       3.26044627       0.00000000
