10
Lattice="16.28999089631971 0.0 0.0 0.0 16.28999089631971 0.0 0.0 0.0 34.3005442915855" Properties=species:S:1:pos:R:3:initial_magmoms:R:1 pbc="T T T"
Si      -1.35606105       1.35725022      -1.36087486       0.00000000
Si       1.35803214      -1.36013355      -1.36111496       0.00000000
Si       1.35500220       1.36691019       1.37384047       0.00000000
Si      -1.36308204      -1.37718918       1.37298295       0.00000000
Si       2.71357191       2.71151937      -0.00068601       0.00000000
Si      -2.71282257      -2.71521720      -0.00305275       0.00000000
Si      -2.71601541       2.71391400      -0.00500788       0.00000000
Si       0.00125433       2.71336014      -2.71849116       0.00000000
Si      -2.71404432      -0.00112401      -2.71818245       0.00000000
Si       2.71570590      -0.00171045      -2.71842256       0.00000000
