10
Lattice="16.28999089631971 0.0 0.0 0.0 16.28999089631971 0.0 0.0 0.0 34.3005442915855" Properties=species:S:1:pos:R:3:initial_magmoms:R:1 pbc="T T T"
Si       0.81539595       1.83373272      -1.14471270       0.00000000
Si      -0.29989890       0.77498046       2.18000661       0.00000000
Si       1.96892343      -1.36251189       0.13627614       0.00000000
Si      -2.34237168      -0.61418187      -0.34355444       0.00000000
Si       0.71065125      -3.29505975      -0.11326046       0.00000000
Si      -1.10620503      -3.20693085       1.47314060       0.00000000
Si       0.95884569       1.25183763      -3.39616739       0.00000000
Si      -2.25039834       2.02981545       2.20281649       0.00000000
Si      -3.02417334       0.65697570      -2.19856322       0.00000000
Si       2.98300851       2.32919307      -0.39106072       0.00000000
