10
Lattice="16.28999089631971 0.0 0.0 0.0 16.28999089631971 0.0 0.0 0.0 34.3005442915855" Properties=species:S:1:pos:R:3:initial_magmoms:R:1 pbc="T T T"
Si      -0.81539595      -1.83373272       1.14471270       0.00000000
Si       0.14344974      -0.58189509      -2.25145468       0.00000000
Si       2.16761256       0.49546035       0.75365198       0.00000000
Si      -1.25030637       1.98135270       0.27056284       0.00000000
Si      -2.08305117      -1.28744757      -2.58080870       0.00000000
Si       2.18815425       2.79870345       0.39733773       0.00000000
Si       0.46048572       1.49791437      -3.27217085       0.00000000
Si       1.15352748      -3.19624461       1.28098884       0.00000000
Si      -1.11529485      -1.05875226       3.32471932       0.00000000
Si       3.58384887      -0.85820607      -0.57518615       0.00000000
