10
Lattice="16.28999089631971 0.0 0.0 0.0 16.28999089631971 0.0 0.0 0.0 34.3005442915855" Properties=species:S:1:pos:R:3:initial_magmoms:R:1 pbc="T T T"
Si      -0.03261258       2.27683701      -0.48103110       0.00000000
Si       2.26245294      -0.59552982      -1.10629607       0.00000000
Si      -0.79513119      -0.78644862       2.40769375       0.00000000
Si      -2.48603319      -0.95869908      -1.18614779       0.00000000
Si      -1.29635820       0.55651527      -2.61133620       0.00000000
Si      -2.24207415       2.61736317       0.34574968       0.00000000
Si       1.13534784      -2.40217227      -2.47574607       0.00000000
Si       1.36207206      -1.45694502       3.04163677       0.00000000
Si      -3.74577147       0.66945384       0.08098363       0.00000000
Si       3.77589168      -0.12903309       0.74072067       0.00000000
