10
Lattice="16.28999089631971 0.0 0.0 0.0 16.28999089631971 0.0 0.0 0.0 34.3005442915855" Properties=species:S:1:pos:R:3:initial_magmoms:R:1 pbc="T T T"
Si       1.38588804      -1.31714424      -1.35490656       0.00000000
Si      -1.33143057       1.42555160      -1.32609408       0.00000000
Si       1.86015510       0.81223473       1.31841076       0.00000000
Si      -1.24532163      -0.80150058       2.15510440       0.00000000
Si       0.41778963       0.63380385       3.20871481       0.00000000
Si      -2.50906725      -2.52182232       0.02479931       0.00000000
Si       2.71728603      -2.64424167       0.03484937       0.00000000
Si       0.04131144      -2.66439240      -2.70868120       0.00000000
Si      -2.68156206       0.05673807      -2.70514824       0.00000000
Si       2.74784607       0.05480869      -2.70140948       0.00000000
