10
Lattice="16.28999089631971 0.0 0.0 0.0 16.28999089631971 0.0 0.0 0.0 34.3005442915855" Properties=species:S:1:pos:R:3:initial_magmoms:R:1 pbc="T T T"
Si       0.79641810      -2.11649454      -0.64464479       0.00000000
Si      -1.71636327       0.23680773      -1.59302107       0.00000000
Si       1.80162513       1.53582120       0.15020217       0.00000000
Si      -0.99732267       0.35885241       2.13373515       0.00000000
Si       2.21845365       1.03413807       2.39531125       0.00000000
Si       1.06337862      -1.57978791      -2.93695145       0.00000000
Si      -1.93789098       2.51486649      -1.86804299       0.00000000
Si      -0.98440470      -3.62745720      -0.29155479       0.00000000
Si       2.63726955      -2.60164332       0.76260443       0.00000000
Si      -3.18591675       1.11795012       1.77433385       0.00000000
