10
Lattice="16.28999089631971 0.0 0.0 0.0 16.28999089631971 0.0 0.0 0.0 34.3005442915855" Properties=species:S:1:pos:R:3:initial_magmoms:R:1 pbc="T T T"
Si      -0.31703598      -2.07980946       1.02071617       0.00000000
Si      -2.18859408       0.75909771      -0.35940130       0.00000000
Si       0.99732267      -0.35885241      -2.13373515       0.00000000
Si       1.32853095       1.45520199       1.35723900       0.00000000
Si       3.21577632       0.67528566       0.26157610       0.00000000
Si       2.79894780       1.17696879      -1.98353298       0.00000000
Si      -0.46048572      -1.49791437       3.27217085       0.00000000
Si      -3.31219683      -1.22401431      -0.90971954       0.00000000
Si      -1.82161296       2.64147237      -1.85281354       0.00000000
Si      -3.14123328       1.09535589       1.76658192       0.00000000
