10
Lattice="16.28999089631971 0.0 0.0 0.0 16.28999089631971 0.0 0.0 0.0 34.3005442915855" Properties=species:S:1:pos:R:3:initial_magmoms:R:1 pbc="T T T"
Si      -0.76240458       1.58172642      -1.61833488       0.00000000
Si      -1.10859966       1.48266693       1.67112345       0.00000000
Si      -0.36395118      -2.41825050      -0.55590923       0.00000000
Si       2.37788388      -0.57203964      -0.61885077       0.00000000
Si       2.25318393      -1.53166725       1.62351427       0.00000000
Si      -2.87466372       0.88791903      -1.02884540       0.00000000
Si       1.73271843      -2.44490094      -1.94840921       0.00000000
Si      -0.80444907       3.69094652       0.02473071       0.00000000
Si       0.31255623      -2.22244470       3.08648273       0.00000000
Si      -0.81759510      -3.58816572       1.53385260       0.00000000
