10
Lattice="16.28999089631971 0.0 0.0 0.0 16.28999089631971 0.0 0.0 0.0 34.3005442915855" Properties=species:S:1:pos:R:3:initial_magmoms:R:1 pbc="T T T"
Si       1.35456237      -1.35684997      -1.35614138       0.00000000
Si       1.35625653       1.35725530       1.35638148       0.00000000
Si      -1.35738054       1.35264034      -1.36049755       0.00000000
Si      -1.35889551      -1.35735496       1.35648438       0.00000000
Si       2.70418887       0.01565069      -2.70826273       0.00000000
Si       2.71350675      -2.71304134      -0.00030871       0.00000000
Si       2.71355562       0.00055410       2.71348327       0.00000000
Si      -0.00131949      -2.71502872       2.71344897       0.00000000
Si       2.71381626       2.71487530       0.00054881       0.00000000
Si      -0.00105885       2.71529884       2.71396348       0.00000000
