10
Lattice="16.28999089631971 0.0 0.0 0.0 16.28999089631971 0.0 0.0 0.0 34.3005442915855" Properties=species:S:1:pos:R:3:initial_magmoms:R:1 pbc="T T T"
Si       1.35436689      -1.35545832       1.35658728       0.00000000
Si       1.35650088       1.35715248      -1.35689599       0.00000000
Si      -1.35729909       1.35632169       1.35885112       0.00000000
Si      -1.35834165      -1.35742941      -1.35689599       0.00000000
Si       0.00293220      -2.69167815       2.71609012       0.00000000
Si       2.71480995       2.71309950       0.00024010       0.00000000
Si       2.69597871       0.01133784       2.73200558       0.00000000
Si       2.71404432       0.00004887      -2.71430649       0.00000000
Si       2.71306692      -2.71541594       0.00003430       0.00000000
Si      -2.71479366      -2.71418279       0.00024010       0.00000000
