10
Lattice="16.28999089631971 0.0 0.0 0.0 16.28999089631971 0.0 0.0 0.0 34.3005442915855" Properties=species:S:1:pos:R:3:initial_magmoms:R:1 pbc="T T T"
Si       0.58997493      -0.89691993       2.08362203       0.00000000
Si      -0.56826036       2.26577447       0.31700581       0.00000000
Si       1.44236547       0.17843089      -1.89030405       0.00000000
Si      -1.66311126      -1.43530443      -1.05361041       0.00000000
Si      -0.41778963      -0.63380385      -3.20871481       0.00000000
Si      -1.24330167       0.11750303       3.19173603       0.00000000
Si      -1.81757304       2.29843592       2.34163087       0.00000000
Si       2.61708624      -0.09089820       2.97605409       0.00000000
Si      -3.87257283      -1.09477827      -0.22682963       0.00000000
Si       1.08058086      -3.24704565       2.15496720       0.00000000
