10
Lattice="16.28999089631971 0.0 0.0 0.0 16.28999089631971 0.0 0.0 0.0 34.3005442915855" Properties=species:S:1:pos:R:3:initial_magmoms:R:1 pbc="T T T"
Si      -0.45157509       1.44897921       1.76003051       0.00000000
Si      -1.86007365      -1.39910575      -0.34876813       0.00000000
Si       1.56965553      -1.52799385       0.90683830       0.00000000
Si       1.04930406       0.63234522      -2.05254572       0.00000000
Si       1.17084375      -1.62034838      -2.73282879       0.00000000
Si       1.29492468      -3.07704158      -0.85483864       0.00000000
Si       1.68480954       2.45428398       2.15458989       0.00000000
Si      -0.97642260      -3.58292753      -0.15267181       0.00000000
Si      -2.40916068       2.63523330       1.17849876       0.00000000
Si       2.96059347       1.87414821      -1.38649738       0.00000000
