10
Lattice="16.28999089631971 0.0 0.0 0.0 16.28999089631971 0.0 0.0 0.0 34.3005442915855" Properties=species:S:1:pos:R:3:initial_magmoms:R:1 pbc="T T T"
Si       1.35682668       1.35632169       1.35727330       0.00000000
Si       1.35721764      -1.35733167      -1.35741050       0.00000000
Si      -1.35769005       1.35806472      -1.35723900       0.00000000
Si      -1.35925389      -1.35741312       1.35669019       0.00000000
Si      -2.71300176       0.00133578      -2.71447799       0.00000000
Si       2.71450044       2.71474479      -0.00003430       0.00000000
Si      -2.71402803       0.00123804       2.71533551       0.00000000
Si       2.71500543      -2.71484253      -0.00006860       0.00000000
Si      -2.71533123      -2.71513575      -0.00006860       0.00000000
Si      -2.71524978       2.71533123       0.00020580       0.00000000
