10
Lattice="16.28999089631971 0.0 0.0 0.0 16.28999089631971 0.0 0.0 0.0 34.3005442915855" Properties=species:S:1:pos:R:3:initial_magmoms:R:1 pbc="T T T"
Si       1.34053668       1.36915821      -1.38848681       0.00000000
Si      -1.37477826      -1.34442999      -1.38714909       0.00000000
Si      -1.24957332       1.42972443       1.45036503       0.00000000
Si       1.46336328      -1.41385797       1.54609790       0.00000000
Si       2.70076797      -2.67884163      -0.03124781       0.00000000
Si       2.68985367       2.72323188      -0.01265691       0.00000000
Si      -2.74362696      -2.68852766      -0.00936405       0.00000000
Si       2.69783577       0.01283652      -2.74733793       0.00000000
Si      -0.01695789      -2.70134626      -2.74709783       0.00000000
Si      -2.73979881       2.70951570      -0.01279411       0.00000000
