10
Lattice="16.28999089631971 0.0 0.0 0.0 16.28999089631971 0.0 0.0 0.0 34.3005442915855" Properties=species:S:1:pos:R:3:initial_magmoms:R:1 pbc="T T T"
Si       1.35729909      -1.35632169      -1.35885112       0.00000000
Si      -1.35922131       1.35741312      -1.35840521       0.00000000
Si       1.34931699       1.35407367       1.37582990       0.00000000
Si      -1.34053668      -1.36915821       1.38848681       0.00000000
Si       2.71166598      -2.71178001      -0.00226384       0.00000000
Si       2.71147050       2.71728603       0.00445907       0.00000000
Si      -2.71531494      -2.71358820       0.00133772       0.00000000
Si      -0.00104256      -2.71375110      -2.71574711       0.00000000
Si       2.71379997       0.00083079      -2.71574711       0.00000000
Si      -0.00154755       2.71583622      -2.71571281       0.00000000
