10
Lattice="16.28999089631971 0.0 0.0 0.0 16.28999089631971 0.0 0.0 0.0 34.3005442915855" Properties=species:S:1:pos:R:3:initial_magmoms:R:1 pbc="T T T"
Si      -1.34931699      -1.35407367      -1.37582990       0.00000000
Si       1.36215351       1.36321236      -1.37137083       0.00000000
Si       1.27524636      -1.33639902       1.50387390       0.00000000
Si      -1.36083402       1.38697947       1.43304324       0.00000000
Si       2.70396081      -2.69905752      -0.00267544       0.00000000
Si      -2.68985367      -2.72323188       0.01265691       0.00000000
Si      -2.71156824       2.73038319       0.00072031       0.00000000
Si      -2.70853830       0.00333945      -2.73423512       0.00000000
Si       0.00798210      -2.71039536      -2.73468102       0.00000000
Si       0.00689067       2.71951776      -2.73454382       0.00000000
