10
Lattice="16.28999089631971 0.0 0.0 0.0 16.28999089631971 0.0 0.0 0.0 34.3005442915855" Properties=species:S:1:pos:R:3:initial_magmoms:R:1 pbc="T T T"
Si      -1.25516079      -1.38342825       1.46693220       0.00000000
Si       1.51260795       1.14647391       1.45358928       0.00000000
Si       0.96594813      -1.15336458      -1.91047278       0.00000000
Si      -1.77591951       2.37425121       0.88725268       0.00000000
Si      -2.01795633       1.95867702      -2.03563554       0.00000000
Si      -0.11271051       2.36499849       2.73715066       0.00000000
Si       2.77464312      -2.25738675      -0.56184323       0.00000000
Si       3.09301488      -0.40457844       2.17763987       0.00000000
Si       2.88989487       2.66589108      -0.01094188       0.00000000
Si      -3.20681682      -2.46897756      -0.10321040       0.00000000
