10
Lattice="16.28999089631971 0.0 0.0 0.0 16.28999089631971 0.0 0.0 0.0 34.3005442915855" Properties=species:S:1:pos:R:3:initial_magmoms:R:1 pbc="T T T"
Si       1.59477471       1.67356944       0.44247727       0.00000000
Si      -0.72728334      -0.80446536       2.10845564       0.00000000
Si       1.62531846      -1.21852458      -1.28356139       0.00000000
Si      -1.66320900       0.00925272      -1.84989799       0.00000000
Si       1.18444590      -2.03380650       2.71602152       0.00000000
Si       0.11271051      -2.36499849      -2.73715066       0.00000000
Si       2.19093984       2.35128231      -1.75999621       0.00000000
Si      -1.98834111       2.33377056      -2.21972666       0.00000000
Si      -2.85311205      -1.75009986       1.88172891       0.00000000
Si       3.53611917       0.58398021       1.48583181       0.00000000
