10
Lattice="16.28999089631971 0.0 0.0 0.0 16.28999089631971 0.0 0.0 0.0 34.3005442915855" Properties=species:S:1:pos:R:3:initial_magmoms:R:1 pbc="T T T"
Si      -1.04560623      -2.07106173       0.29796899       0.00000000
Si       1.82959506       0.32856930      -1.45225156       0.00000000
Si       0.54428148       0.76820382       2.21001960       0.00000000
Si      -1.82661399       1.28599776      -0.94782747       0.00000000
Si      -3.15885906      -1.29554370       1.08183977       0.00000000
Si       1.57312530       2.49691491      -2.27567088       0.00000000
Si       1.06189623       3.10129020       1.79244454       0.00000000
Si       3.77870985       0.22007790      -0.12502555       0.00000000
Si      -0.69525720      -3.43745064      -1.55690258       0.00000000
Si      -1.36842516       0.76325166       3.64861954       0.00000000
