10
Lattice="16.28999089631971 0.0 0.0 0.0 16.28999089631971 0.0 0.0 0.0 34.3005442915855" Properties=species:S:1:pos:R:3:initial_magmoms:R:1 pbc="T T T"
Si       1.35528196      -1.35444834      -1.35590127       0.00000000
Si      -1.35826130      -1.35609363       1.35658728       0.00000000
Si       1.35660797       1.35826020       1.35669019       0.00000000
Si      -1.35731648       1.35505107      -1.36228118       0.00000000
Si       2.71364316      -2.71137276      -0.00188653       0.00000000
Si      -0.00301475      -2.69094510      -2.73626571       0.00000000
Si      -0.00106671      -2.71402803       2.71379198       0.00000000
Si       2.71421331       0.00115659       2.71434079       0.00000000
Si      -2.71577216      -2.71399545       0.00058311       0.00000000
Si      -2.71580474       0.00100998       2.71399778       0.00000000
