10
Lattice="16.28999089631971 0.0 0.0 0.0 16.28999089631971 0.0 0.0 0.0 34.3005442915855" Properties=species:S:1:pos:R:3:initial_magmoms:R:1 pbc="T T T"
Si       1.06481214      -0.59412888      -1.98682584       0.00000000
Si       1.72428021      -0.54288054       1.52321942       0.00000000
Si      -1.34900748      -1.92204081       0.31409026       0.00000000
Si      -0.49060593       2.35012572      -0.07134517       0.00000000
Si       1.66058631       1.69945425       2.69907704       0.00000000
Si       1.53650538       3.15614745       0.82108689       0.00000000
Si      -0.61076097       1.19356830       3.40124387       0.00000000
Si      -3.50621073      -1.25154441      -0.31985275       0.00000000
Si      -0.54307602      -3.60942417      -1.21732700       0.00000000
Si      -2.71107954      -0.46509579      -2.72754651       0.00000000
