10
Lattice="16.28999089631971 0.0 0.0 0.0 16.28999089631971 0.0 0.0 0.0 34.3005442915855" Properties=species:S:1:pos:R:3:initial_magmoms:R:1 pbc="T T T"
Si       0.12469995       0.95962761      -2.24236504       0.00000000
Si       0.72536112       1.91443338       1.38204314       0.00000000
Si      -1.94062770      -0.69077745       1.46296846       0.00000000
Si       1.57929921      -2.03856318       0.02377029       0.00000000
Si      -2.25318393       1.53166725      -1.62351427       0.00000000
Si       1.82441484       0.41915799       2.85456290       0.00000000
Si      -2.61713511      -0.88658325      -2.17942350       0.00000000
Si       3.18179538      -0.99369000       1.44072798       0.00000000
Si      -3.07077903      -2.05649847      -0.08966167       0.00000000
Si      -0.52046550      -0.91323369      -3.57192348       0.00000000
