10
Lattice="16.28999089631971 0.0 0.0 0.0 16.28999089631971 0.0 0.0 0.0 34.3005442915855" Properties=species:S:1:pos:R:3:initial_magmoms:R:1 pbc="T T T"
Si      -0.61973676       0.39685698      -2.23656824       0.00000000
Si       0.64516545       1.87286130       1.32955844       0.00000000
Si       1.57837068      -1.78774605      -0.26143889       0.00000000
Si      -2.09666961       0.02665044       1.39249997       0.00000000
Si      -0.36346248      -3.16210077       0.29069728       0.00000000
Si      -1.73271843       2.44490094       1.94840921       0.00000000
Si       2.71485882      -1.04695830      -2.26555222       0.00000000
Si       2.54669715       2.68079643      -0.37624288       0.00000000
Si       0.52046550       0.91323369       3.57192348       0.00000000
Si       0.79649955      -0.95680944      -3.56540637       0.00000000
