10
Lattice="16.28999089631971 0.0 0.0 0.0 16.28999089631971 0.0 0.0 0.0 34.3005442915855" Properties=species:S:1:pos:R:3:initial_magmoms:R:1 pbc="T T T"
Si       1.62196272       1.08278490      -1.34566397       0.00000000
Si       1.18622151      -1.45042832       1.45218639       0.00000000
Si      -0.62372781      -1.90353767      -1.34909402       0.00000000
Si      -1.50832368       1.24213368       1.43445642       0.00000000
Si      -0.08413785       2.24678685      -2.71099790       0.00000000
Si      -1.40895468       0.34273020      -3.21586789       0.00000000
Si       3.24377883      -0.97320370      -1.32909679       0.00000000
Si       2.47779045      -2.78915981       0.07965963       0.00000000
Si      -2.60936478      -2.68855277      -0.04035118       0.00000000
Si       2.55109545      -0.11008619       2.80019167       0.00000000
