10
Lattice="16.28999089631971 0.0 0.0 0.0 16.28999089631971 0.0 0.0 0.0 34.3005442915855" Properties=species:S:1:pos:R:3:initial_magmoms:R:1 pbc="T T T"
Si       1.34753716       1.35589569       1.35590127       0.00000000
Si      -1.35765747       1.35491340      -1.35789071       0.00000000
Si       1.35931158      -1.35814116      -1.35703319       0.00000000
Si      -1.35943308      -1.35182064       1.39088785       0.00000000
Si       2.57752502      -0.12580266       2.67256270       0.00000000
Si      -0.03363885       2.71123835       2.71488960       0.00000000
Si       0.00051452       2.71244381      -2.71502680       0.00000000
Si       2.71814030       2.71052159       0.00178363       0.00000000
Si      -2.71445157      -0.00184481      -2.71530120       0.00000000
Si       2.71584341      -0.00210954      -2.71502680       0.00000000
