10
Lattice="16.28999089631971 0.0 0.0 0.0 16.28999089631971 0.0 0.0 0.0 34.3005442915855" Properties=species:S:1:pos:R:3:initial_magmoms:R:1 pbc="T T T"
Si      -0.76598838      -1.81595611       1.40875642       0.00000000
Si       1.89438432       0.82797346       1.32402717       0.00000000
Si       0.90769739      -2.03100040      -1.32777481       0.00000000
Si      -1.62181611       2.05598859      -0.01656717       0.00000000
Si       0.98697756      -0.53702821      -3.18189177       0.00000000
Si      -2.05755732      -0.47722462       2.78128318       0.00000000
Si       0.66482748       2.24505033       2.75324590       0.00000000
Si       3.00811859       1.97546712      -0.46309191       0.00000000
Si      -3.24377883       0.97320370       1.32909679       0.00000000
Si      -2.27882439      -2.98709308       0.11891117       0.00000000
