10
Lattice="16.28999089631971 0.0 0.0 0.0 16.28999089631971 0.0 0.0 0.0 34.3005442915855" Properties=species:S:1:pos:R:3:initial_magmoms:R:1 pbc="T T T"
Si       1.94391828      -1.15013916      -0.52311789       0.00000000
Si      -1.63394306      -0.87733053       1.41654467       0.00000000
Si      -0.99139800       1.09959129      -1.80643917       0.00000000
Si       0.91108341       1.69943796       2.02822662       0.00000000
Si       0.23245504       2.98015776      -1.81278478       0.00000000
Si      -0.28245720      -2.20371120       2.89627098       0.00000000
Si      -2.86602092       1.14546393       2.22559206       0.00000000
Si       3.34782306      -0.87389334       1.65431618       0.00000000
Si      -3.19641470      -2.20809321       0.18024946       0.00000000
Si      -1.17503747       2.86607889       2.37939579       0.00000000
