10
Lattice="16.28999089631971 0.0 0.0 0.0 16.28999089631971 0.0 0.0 0.0 34.3005442915855" Properties=species:S:1:pos:R:3:initial_magmoms:R:1 pbc="T T T"
Si       1.11788496       1.63637937      -1.22851927       0.00000000
Si       1.35555606      -1.31414688       1.40529408       0.00000000
Si      -1.60249617      -1.04487318      -1.41695769       0.00000000
Si      -1.35738054       1.41284799       1.41383493       0.00000000
Si      -3.18179538       0.99369000      -1.44072798       0.00000000
Si       2.62901052      -2.66393628      -0.17495002       0.00000000
Si      -2.67079437      -2.62848924       0.02732383       0.00000000
Si      -2.45643426       2.90812338      -0.05868483       0.00000000
Si      -0.00809613      -2.65719222       2.78168652       0.00000000
Si       2.63072097       2.80751634       0.06132598       0.00000000
