10
Lattice="16.28999089631971 0.0 0.0 0.0 16.28999089631971 0.0 0.0 0.0 34.3005442915855" Properties=species:S:1:pos:R:3:initial_magmoms:R:1 pbc="T T T"
Si      -1.27003356      -1.45375218       1.46557874       0.00000000
Si       1.48775497       1.20956508       1.48841948       0.00000000
Si       1.09609450      -1.51210296      -1.63531366       0.00000000
Si      -1.18340334       1.89473877      -1.11836987       0.00000000
Si       2.57206787       2.61415404      -0.21180598       0.00000000
Si      -0.36196380      -3.51704358      -1.55052267       0.00000000
Si      -2.35217826      -3.09480678      -0.00785483       0.00000000
Si       0.40536266       3.80265615      -1.03467650       0.00000000
Si      -2.54348802      -0.10396278       3.04582285       0.00000000
Si      -2.78115912       2.84656347       0.41200949       0.00000000
