10
Lattice="16.28999089631971 0.0 0.0 0.0 16.28999089631971 0.0 0.0 0.0 34.3005442915855" Properties=species:S:1:pos:R:3:initial_magmoms:R:1 pbc="T T T"
Si       1.35943308       1.35182064      -1.39088785       0.00000000
Si      -1.35798327      -1.36405944      -1.38714909       0.00000000
Si       1.23618294      -1.27252593       1.64615264       0.00000000
Si      -1.32506118       1.50659973       1.37363466       0.00000000
Si       2.70697024       2.70771633      -0.03498657       0.00000000
Si       2.70624045      -2.71423980       0.00627700       0.00000000
Si      -2.70866862      -2.72018565      -0.01557246       0.00000000
Si      -2.70835911       2.73047183      -0.03272274       0.00000000
Si       0.00177561       2.70673404      -2.74877855       0.00000000
Si      -2.71096551      -0.00742824      -2.74860705       0.00000000
