10
Lattice="16.28999089631971 0.0 0.0 0.0 16.28999089631971 0.0 0.0 0.0 34.3005442915855" Properties=species:S:1:pos:R:3:initial_magmoms:R:1 pbc="T T T"
Si      -0.88211979       1.16235666      -1.87644662       0.00000000
Si      -2.00093328      -1.23849612       0.37706609       0.00000000
Si       1.83669750      -1.58104224      -0.91462452       0.00000000
Si       0.39672666       1.73136636       2.01779925       0.00000000
Si      -1.84682988      -0.67536711      -2.96494071       0.00000000
Si       0.93214638       2.18024010      -2.94141052       0.00000000
Si       0.48892806       0.16110810       3.76479554       0.00000000
Si      -1.37556018      -3.57159879       0.32043586       0.00000000
Si       2.44074699      -2.81984787       1.21060409       0.00000000
Si      -3.06574542      -0.64436724       2.36389193       0.00000000
