10
Lattice="16.28999089631971 0.0 0.0 0.0 16.28999089631971 0.0 0.0 0.0 34.3005442915855" Properties=species:S:1:pos:R:3:initial_magmoms:R:1 pbc="T T T"
Si      -1.83039327      -1.34835588       0.12231581       0.00000000
Si       1.43532819      -1.07803962       1.42477681       0.00000000
Si      -0.09220140       1.57025826      -1.74699630       0.00000000
Si      -1.89408717       0.89397891       1.29817343       0.00000000
Si      -2.01816810       2.35067211      -0.57981672       0.00000000
Si       2.72469798      -2.43450792      -0.09206271       0.00000000
Si      -0.48892806      -0.16110810      -3.76479554       0.00000000
Si      -1.35635427      -3.32218260       1.40460807       0.00000000
Si      -3.55467348      -0.80547534      -1.40090361       0.00000000
Si       2.83781574       0.25524801       2.71554131       0.00000000
