10
Lattice="16.28999089631971 0.0 0.0 0.0 16.28999089631971 0.0 0.0 0.0 34.3005442915855" Properties=species:S:1:pos:R:3:initial_magmoms:R:1 pbc="T T T"
Si      -1.23343319      -1.94693193       0.34698450       0.00000000
Si       0.12476511       1.29779172       1.97519795       0.00000000
Si       2.03131413      -1.17276597      -0.39445648       0.00000000
Si      -0.92647583       1.40051646      -1.72689617       0.00000000
Si       3.27551175       0.78499881      -0.52202028       0.00000000
Si      -2.95138052       0.21248676      -2.02829522       0.00000000
Si      -1.81663169       0.53170560       3.23275951       0.00000000
Si      -0.38681419      -3.12973254       2.17993801       0.00000000
Si       1.95385518      -2.11036950      -2.56273230       0.00000000
Si       0.71998542       1.64934621      -3.44257605       0.00000000
