10
Lattice="16.28999089631971 0.0 0.0 0.0 16.28999089631971 0.0 0.0 0.0 34.3005442915855" Properties=species:S:1:pos:R:3:initial_magmoms:R:1 pbc="T T T"
Si      -1.82933814       0.89050914      -1.30986992       0.00000000
Si       1.94139680       0.76608612      -1.25756156       0.00000000
Si       0.09161501      -2.41272819       0.45959325       0.00000000
Si      -0.53425056       0.79925256       2.34283139       0.00000000
Si       1.47554841      -2.24658648       2.50476435       0.00000000
Si       0.92380774       2.80419318       2.25804039       0.00000000
Si       1.81663169      -0.53170560      -3.23275951       0.00000000
Si      -1.95473856      -3.25236366      -0.28126462       0.00000000
Si       3.80744888       0.46766961       0.14886445       0.00000000
Si      -3.82123047       0.40340556      -0.01982573       0.00000000
