10
Lattice="16.28999089631971 0.0 0.0 0.0 16.28999089631971 0.0 0.0 0.0 34.3005442915855" Properties=species:S:1:pos:R:3:initial_magmoms:R:1 pbc="T T T"
Si       0.01612710      -1.97488557      -1.26538209       0.00000000
Si       1.99896219      -0.44857773       1.17431409       0.00000000
Si      -2.01908360      -0.63978975       1.15846723       0.00000000
Si       0.31281687       2.07446634      -1.19743267       0.00000000
Si       1.50314346       0.83082258       3.04805718       0.00000000
Si      -3.40301700      -0.80593146      -0.88670387       0.00000000
Si      -1.16113491      -2.55777435       2.37706335       0.00000000
Si      -2.06481451      -2.05464141      -2.39911861       0.00000000
Si       1.32600600      -1.50588018      -3.20590216       0.00000000
Si      -0.05916528       3.75626223       0.58986679       0.00000000
