10
Lattice="16.28999089631971 0.0 0.0 0.0 16.28999089631971 0.0 0.0 0.0 34.3005442915855" Properties=species:S:1:pos:R:3:initial_magmoms:R:1 pbc="T T T"
Si      -1.28791998       1.34832330       1.39757646       0.00000000
Si       1.33955928       1.35443205      -1.35384324       0.00000000
Si       1.24831899      -1.41648066       1.39977169       0.00000000
Si      -1.37068947      -1.36230012      -1.34890396       0.00000000
Si      -0.67523679      -2.12177250       2.65242827       0.00000000
Si      -2.36079567      -0.30320577       2.80654070       0.00000000
Si       2.70440064       2.70443322       0.02195236       0.00000000
Si       2.69951364      -0.00223173      -2.70971021       0.00000000
Si      -0.01573614       2.71002069      -2.71084213       0.00000000
Si      -0.01529631      -2.71858923      -2.71053343       0.00000000
