10
Lattice="16.28999089631971 0.0 0.0 0.0 16.28999089631971 0.0 0.0 0.0 34.3005442915855" Properties=species:S:1:pos:R:3:initial_magmoms:R:1 pbc="T T T"
Si       1.22385304       1.88056647      -0.00634560       0.00000000
Si       0.99139800      -1.09959129       1.80643917       0.00000000
Si      -2.40813671      -0.23721498      -0.20189312       0.00000000
Si       1.55472249       0.98539839      -2.36701328       0.00000000
Si      -1.57781912      -1.36492281      -2.16947634       0.00000000
Si      -1.34951477       3.22960653       0.39051191       0.00000000
Si      -0.84465509      -3.34124190      -0.91808888       0.00000000
Si      -0.17401208      -0.08806374      -3.75477978       0.00000000
Si      -3.21980225       1.81317474       0.78620322       0.00000000
Si      -0.64254506      -1.97692182       3.22298384       0.00000000
