10
Lattice="16.28999089631971 0.0 0.0 0.0 16.28999089631971 0.0 0.0 0.0 34.3005442915855" Properties=species:S:1:pos:R:3:initial_magmoms:R:1 pbc="T T T"
Si       1.75651812      -0.11069055      -1.52695818       0.00000000
Si       0.68180166      -1.27115757       1.85500877       0.00000000
Si      -1.82594903      -1.32064659      -0.75694483       0.00000000
Si      -0.73178101       2.25469890      -0.23170031       0.00000000
Si      -1.22573942       1.82861766      -2.49646361       0.00000000
Si       0.98785818       1.45065708      -3.12803988       0.00000000
Si      -0.65865031      -0.27204300       3.55031412       0.00000000
Si      -2.48613812      -0.16465932      -2.79817137       0.00000000
Si      -2.33045459       2.52372825       1.50335940       0.00000000
Si       3.02417334      -0.65697570       2.19856322       0.00000000
