10
Lattice="16.28999089631971 0.0 0.0 0.0 16.28999089631971 0.0 0.0 0.0 34.3005442915855" Properties=species:S:1:pos:R:3:initial_magmoms:R:1 pbc="T T T"
Si      -1.35519605      -1.35203742       1.39195117       0.00000000
Si       1.36146933       1.36198802       1.39181396       0.00000000
Si      -1.48556981       1.32657356      -1.41101199       0.00000000
Si       1.27254222      -1.35540945      -1.59753845       0.00000000
Si       2.71296918      -2.69581581       0.00091583       0.00000000
Si      -2.70574603      -2.71047681       0.00564930       0.00000000
Si       2.71792134       2.72092589       0.00864031       0.00000000
Si      -2.71512665       2.74365044       0.01820674       0.00000000
Si       0.00329058      -2.70791928       2.75244871       0.00000000
Si      -2.71274831       0.00703301       2.75364923       0.00000000
