10
Lattice="16.28999089631971 0.0 0.0 0.0 16.28999089631971 0.0 0.0 0.0 34.3005442915855" Properties=species:S:1:pos:R:3:initial_magmoms:R:1 pbc="T T T"
Si       1.35848663      -1.35588186       1.36049755       0.00000000
Si      -1.35755226       1.35907043       1.36169807       0.00000000
Si      -1.35054998      -1.35843939      -1.38630186       0.00000000
Si       1.35519605       1.35203742      -1.39195117       0.00000000
Si      -2.71450926      -2.71306692      -0.00003430       0.00000000
Si       2.71666538       2.71402544      -0.00013720       0.00000000
Si      -2.71744146       2.71375503       0.00229814       0.00000000
Si       2.71492235      -2.71656927       0.00034301       0.00000000
Si      -0.00033557      -2.71451673       2.71869696       0.00000000
Si       2.71505267       0.00026064       2.71900567       0.00000000
