10
Lattice="16.28999089631971 0.0 0.0 0.0 16.28999089631971 0.0 0.0 0.0 34.3005442915855" Properties=species:S:1:pos:R:3:initial_magmoms:R:1 pbc="T T T"
Si      -1.35632223      -1.35689184      -1.35713609       0.00000000
Si      -1.35734960       1.35731538       1.35802791       0.00000000
Si       1.35813803      -1.35806472       1.35723900       0.00000000
Si       1.35882220       1.35863487      -1.35819941       0.00000000
Si      -0.00027041      -2.71417464       2.71447799       0.00000000
Si       2.71524163      -0.00161271       2.71427219       0.00000000
Si      -2.71492302       2.71507059       0.00044591       0.00000000
Si      -2.71471125      -2.71529865       0.00027440       0.00000000
Si      -2.71410852      -0.00024435       2.71598722       0.00000000
Si       2.71538824       2.71477737       0.00030871       0.00000000
