10
Lattice="16.28999089631971 0.0 0.0 0.0 16.28999089631971 0.0 0.0 0.0 34.3005442915855" Properties=species:S:1:pos:R:3:initial_magmoms:R:1 pbc="T T T"
Si      -1.34420169      -1.36870209      -1.39510682       0.00000000
Si       1.37027407       1.34563545      -1.39617014       0.00000000
Si       1.45441193      -1.37192751       1.35288282       0.00000000
Si      -1.47005751       1.44171387       1.63987564       0.00000000
Si      -2.70239601      -2.70422145      -0.01474924       0.00000000
Si      -2.70624045       2.71423980      -0.00627700       0.00000000
Si       2.72623739       2.70275535      -0.03529528       0.00000000
Si      -2.70275439      -0.00886176      -2.75382074       0.00000000
Si       0.01250420       2.70791928      -2.75419804       0.00000000
Si       2.74233190      -2.72025081      -0.04469363       0.00000000
