10
Lattice="16.28999089631971 0.0 0.0 0.0 16.28999089631971 0.0 0.0 0.0 34.3005442915855" Properties=species:S:1:pos:R:3:initial_magmoms:R:1 pbc="T T T"
Si      -0.61963902       0.08226450       2.21070562       0.00000000
Si       0.58494132      -2.21788350      -0.46058797       0.00000000
Si      -1.78649172       0.64545867      -1.38409634       0.00000000
Si       1.97351721       1.18423413      -0.60633106       0.00000000
Si       0.98614773      -1.72286298      -2.77141693       0.00000000
Si      -0.87140097      -0.31034079      -3.35956869       0.00000000
Si       0.50396373       2.06537652       2.76102386       0.00000000
Si       2.59605585       0.03813489      -2.58420445       0.00000000
Si      -1.42923573      -3.51556119       0.02651434       0.00000000
Si       2.70547578      -2.68003080       0.69513522       0.00000000
