10
Lattice="16.28999089631971 0.0 0.0 0.0 16.28999089631971 0.0 0.0 0.0 34.56409401068381" Properties=species:S:1:pos:R:3:initial_magmoms:R:1 pbc="T T T"
Si       0.70130242      -1.65170826       1.51722632       0.00000000
Si       1.29826576       1.38140829      -1.40015767       0.00000000
Si      -1.68383770       0.94783365       1.35263201       0.00000000
Si      -1.43126125      -1.34278470      -1.41726690       0.00000000
Si      -1.85331886      -1.18451106       2.57423147       0.00000000
Si       2.20390831      -0.54683901       2.93521907       0.00000000
Si      -2.71949074       2.53213389      -0.09100731       0.00000000
Si      -0.79942198       2.91550275       2.19686048       0.00000000
Si       2.58300919      -2.78710008       0.11893511       0.00000000
Si       2.65387069       0.03323160      -2.74936783       0.00000000
