10
Lattice="16.28999089631971 0.0 0.0 0.0 16.28999089631971 0.0 0.0 0.0 34.56409401068381" Properties=species:S:1:pos:R:3:initial_magmoms:R:1 pbc="T T T"
Si       1.48900374      -1.24161126       1.32948442       0.00000000
Si      -1.23351138       1.50265150       1.32993376       0.00000000
Si      -1.35842310      -0.96058220      -1.76380467       0.00000000
Si       1.99174572       0.57967639      -1.29384882       0.00000000
Si       0.62641566      -0.41671612      -3.08733370       0.00000000
Si      -2.45539170      -2.48346981      -0.12578572       0.00000000
Si       0.13870935      -2.58326235       2.69902520       0.00000000
Si      -2.58802488       0.13881198       2.69539597       0.00000000
Si      -2.51833626       2.91672124      -0.15095185       0.00000000
Si       2.76263739       2.69599174      -0.13807672       0.00000000
