10
Lattice="16.28999089631971 0.0 0.0 0.0 16.28999089631971 0.0 0.0 0.0 34.56409401068381" Properties=species:S:1:pos:R:3:initial_magmoms:R:1 pbc="T T T"
Si       0.10915929      -1.98169316       1.26331834       0.00000000
Si       1.44793665      -0.47788344      -1.82273852       0.00000000
Si      -1.86268005      -0.54962460      -1.51349339       0.00000000
Si       0.39816018       2.16933930       1.12274609       0.00000000
Si      -0.31210011      -1.69426100      -2.81963667       0.00000000
Si       1.47448935      -0.98530065       3.05680322       0.00000000
Si      -2.29205187       1.58552199      -2.47389185       0.00000000
Si       1.10649825       3.58272486      -0.88211074       0.00000000
Si      -0.15692157       2.74730850      -2.75593501       0.00000000
Si       1.17887472      -3.76684163       0.13110168       0.00000000
