10
Lattice="16.28999089631971 0.0 0.0 0.0 16.28999089631971 0.0 0.0 0.0 34.56409401068381" Properties=species:S:1:pos:R:3:initial_magmoms:R:1 pbc="T T T"
Si       1.35679410       1.35729909      -1.35702165       0.00000000
Si      -1.35760860       1.35496962       1.35871529       0.00000000
Si       1.35540945      -1.35710361       1.36061632       0.00000000
Si      -1.35868374      -1.35791811      -1.35705622       0.00000000
Si       0.01591533       2.70961344       2.71124361       0.00000000
Si      -2.71503475      -0.00671148       2.71027582       0.00000000
Si       2.71422351      -2.71410948       0.00072585       0.00000000
Si       2.71456560      -0.00066789      -2.71490741       0.00000000
Si      -0.00096111       2.71484253      -2.71470002       0.00000000
Si      -2.71543223      -0.00081450      -2.71459633       0.00000000
