10
Lattice="16.28999089631971 0.0 0.0 0.0 16.28999089631971 0.0 0.0 0.0 34.56409401068381" Properties=species:S:1:pos:R:3:initial_magmoms:R:1 pbc="T T T"
Si      -1.66708602       1.15054641       1.21230171       0.00000000
Si      -1.35894438      -1.46114784      -1.29857374       0.00000000
Si       1.46127816       1.42092783      -1.24448090       0.00000000
Si       1.84798647      -0.51608349       1.42791265       0.00000000
Si       0.00851967       2.61765639      -2.65825683       0.00000000
Si       2.71107954      -0.09053982      -2.63399282       0.00000000
Si      -2.72243041      -0.09866853      -2.65922462       0.00000000
Si      -2.73925798       2.68270236      -0.10649203       0.00000000
Si      -0.00333945      -2.80932453      -2.64778390       0.00000000
Si      -2.65721014      -2.84255613       0.10158393       0.00000000
