10
Lattice="16.28999089631971 0.0 0.0 0.0 16.28999089631971 0.0 0.0 0.0 34.56409401068381" Properties=species:S:1:pos:R:3:initial_magmoms:R:1 pbc="T T T"
Si      -1.92194307       1.29557628       0.47235317       0.00000000
Si       1.10369637      -0.56288466       2.02583725       0.00000000
Si       0.62178930      -0.35805420      -2.26626522       0.00000000
Si       2.14422012       1.12661640       0.22110663       0.00000000
Si       0.68911587      -2.55515166      -1.56094992       0.00000000
Si       2.62023021       1.20443373      -2.09437788       0.00000000
Si       3.21173640      -1.21151988       0.97273784       0.00000000
Si       0.51992793       1.30813587       3.36761613       0.00000000
Si      -1.67949900      -3.23136585      -0.65737487       0.00000000
Si      -1.33125138       2.53216647       2.37894423       0.00000000
