10
Lattice="16.28999089631971 0.0 0.0 0.0 16.28999089631971 0.0 0.0 0.0 34.56409401068381" Properties=species:S:1:pos:R:3:initial_magmoms:R:1 pbc="T T T"
Si      -0.54196830       1.89682389       1.23342038       0.00000000
Si       0.12790908       0.57445056      -2.26215209       0.00000000
Si      -1.92578751      -1.37313297       0.14001922       0.00000000
Si       2.04069717      -0.94190409       0.81011369       0.00000000
Si      -0.30149532      -1.55465244      -3.00649027       0.00000000
Si      -1.31888727       0.88788645       3.26233384       0.00000000
Si      -1.34201907      -3.24415350      -1.20175966       0.00000000
Si       3.41283645       0.94161087       1.21679505       0.00000000
Si      -3.77696682      -0.14910237      -0.84865267       0.00000000
Si       2.44195245       0.68217633      -2.94399835       0.00000000
