10
Lattice="16.28999089631971 0.0 0.0 0.0 16.28999089631971 0.0 0.0 0.0 34.56409401068381" Properties=species:S:1:pos:R:3:initial_magmoms:R:1 pbc="T T T"
Si      -2.09895021      -1.02255588       0.08046526       0.00000000
Si       0.16443126       1.81263717       1.51093565       0.00000000
Si       0.77691897       1.00893744      -2.02891345       0.00000000
Si       1.26926793      -1.83804957       0.86821596       0.00000000
Si       2.50818759       1.33773480       1.50385001       0.00000000
Si       2.31896295      -0.71879625       2.62504071       0.00000000
Si       1.31888727      -0.88788645      -3.26233384       0.00000000
Si      -2.09406321      -1.98364959       2.23709311       0.00000000
Si      -1.73468952      -3.00441357      -1.14566210       0.00000000
Si      -3.61825335       0.80177751      -0.14658640       0.00000000
