10
Lattice="16.28999089631971 0.0 0.0 0.0 16.28999089631971 0.0 0.0 0.0 34.56409401068381" Properties=species:S:1:pos:R:3:initial_magmoms:R:1 pbc="T T T"
Si      -2.21501713       0.72761240      -0.06442751       0.00000000
Si       1.60769920       1.69264340       0.10963737       0.00000000
Si       0.19636455      -1.54922040      -1.77856558       0.00000000
Si       0.80264903      -1.13679018       1.94945056       0.00000000
Si       3.27976996       0.36171782       1.01642688       0.00000000
Si      -2.08658677       2.15865143      -1.97744749       0.00000000
Si      -1.15895272      -1.27841544       3.15563442       0.00000000
Si       1.77467170      -3.02608809      -0.90056797       0.00000000
Si      -1.91365213      -2.48776875      -1.87168130       0.00000000
Si      -2.46273916       2.00350547       1.89559967       0.00000000
