10
Lattice="16.28999089631971 0.0 0.0 0.0 16.28999089631971 0.0 0.0 0.0 34.56409401068381" Properties=species:S:1:pos:R:3:initial_magmoms:R:1 pbc="T T T"
Si       1.67207076      -1.33092558       0.90678951       0.00000000
Si      -1.60769920      -1.69264340      -0.10963737       0.00000000
Si       0.26181288       0.85198329      -2.20387699       0.00000000
Si      -0.16338870       1.42591257       1.95722748       0.00000000
Si      -1.92559537       1.97742681      -1.95180092       0.00000000
Si       3.37181823       0.30981951       0.70918648       0.00000000
Si      -0.80505017      -2.82943358       1.83981319       0.00000000
Si       1.10019402       3.29892048       1.10145460       0.00000000
Si      -2.48431364       2.13239358       1.97043097       0.00000000
Si       2.94244641       2.44496610      -0.25121198       0.00000000
