10
Lattice="16.28999089631971 0.0 0.0 0.0 16.28999089631971 0.0 0.0 0.0 34.56409401068381" Properties=species:S:1:pos:R:3:initial_magmoms:R:1 pbc="T T T"
Si       1.34389242       1.34157924      -1.39829120       0.00000000
Si      -1.37440359      -1.37213928      -1.39694320       0.00000000
Si      -1.16087427       1.48517559       1.56098449       0.00000000
Si       1.47690027      -1.26027585       1.52362068       0.00000000
Si      -2.45421882      -0.04002453       2.86232335       0.00000000
Si       2.69495244       2.71006956      -0.02129149       0.00000000
Si       2.69511534      -2.71283886      -0.02236298       0.00000000
Si      -2.71930599       2.69441487      -0.00687826       0.00000000
Si      -2.71195920      -2.73263121      -0.04610853       0.00000000
Si      -0.01431891       2.70221778      -2.75669542       0.00000000
