10
Lattice="16.28999089631971 0.0 0.0 0.0 16.28999089631971 0.0 0.0 0.0 34.56409401068381" Properties=species:S:1:pos:R:3:initial_magmoms:R:1 pbc="T T T"
Si       2.02329945       0.75450393      -1.03961940       0.00000000
Si      -1.53663570      -1.01247237      -1.53913997       0.00000000
Si      -0.88003467       1.81214847       1.33310329       0.00000000
Si       1.15450488      -1.77047865       1.20379894       0.00000000
Si       0.02161683      -1.29528306      -3.27159702       0.00000000
Si       0.96612732       3.25794691       1.10871306       0.00000000
Si       2.92773654       2.07769176       0.59982562       0.00000000
Si       0.99007362      -3.58311582      -0.30713671       0.00000000
Si       1.42623837       2.49957476      -2.44679358       0.00000000
Si      -2.62817973      -2.78133831      -0.45372312       0.00000000
