10
Lattice="16.28999089631971 0.0 0.0 0.0 16.28999089631971 0.0 0.0 0.0 34.56409401068381" Properties=species:S:1:pos:R:3:initial_magmoms:R:1 pbc="T T T"
Si      -1.35694071       1.35722468      -1.35750555       0.00000000
Si       1.35860229       1.35643951       1.35677970       0.00000000
Si       1.35785295      -1.35826034      -1.35729817       0.00000000
Si      -1.35793440      -1.35783680       1.35798945       0.00000000
Si      -0.00123804      -2.71428881      -2.71411243       0.00000000
Si       0.00438201       2.71009289       2.71843295       0.00000000
Si       2.71345788       0.00454642       2.71539131       0.00000000
Si      -0.00001629       2.71432829      -2.71476915       0.00000000
Si      -2.71495656       2.71426313       0.00010369       0.00000000
Si       2.71507059       2.71491473      -0.00017282       0.00000000
