10
Lattice="16.28999089631971 0.0 0.0 0.0 16.28999089631971 0.0 0.0 0.0 34.56409401068381" Properties=species:S:1:pos:R:3:initial_magmoms:R:1 pbc="T T T"
Si      -0.00171045       1.64028897      -1.67162421       0.00000000
Si       2.15228367      -0.90832714       0.25183413       0.00000000
Si      -1.76003676      -1.21637756      -0.99689816       0.00000000
Si      -1.44793665       0.47788344       1.82273852       0.00000000
Si      -3.31061670      -0.07174116       0.30924512       0.00000000
Si      -1.21039587      -3.39425675      -0.20620950       0.00000000
Si      -1.33877736      -1.50380972       3.08605686       0.00000000
Si       3.41749539       0.97546149       1.06592269       0.00000000
Si      -1.60485822       3.22519194      -0.93319650       0.00000000
Si       2.63223594      -2.18817429      -1.70003591       0.00000000
