10
Lattice="16.28999089631971 0.0 0.0 0.0 16.28999089631971 0.0 0.0 0.0 34.56409401068381" Properties=species:S:1:pos:R:3:initial_magmoms:R:1 pbc="T T T"
Si       0.38760426      -0.55539126      -2.20166489       0.00000000
Si       0.00171045      -1.64028897       1.67162421       0.00000000
Si      -1.60314777       1.58490297       0.73842772       0.00000000
Si       2.24937207       0.75958641      -0.79494004       0.00000000
Si      -1.75832631      -2.85666653       0.67472606       0.00000000
Si      -0.33972795       2.42031933       2.61225199       0.00000000
Si       3.32514738       1.25312454       1.26964357       0.00000000
Si       2.15399412      -2.54861611       1.92345834       0.00000000
Si      -3.73827807       0.42311646       1.02047088       0.00000000
Si      -2.31544431       3.00420180      -1.04335232       0.00000000
