10
Lattice="16.28999089631971 0.0 0.0 0.0 16.28999089631971 0.0 0.0 0.0 34.56409401068381" Properties=species:S:1:pos:R:3:initial_magmoms:R:1 pbc="T T T"
Si      -1.62654021       1.18190466       1.27047311       0.00000000
Si      -0.55868184      -2.29495149      -0.47453071       0.00000000
Si       1.63989801      -0.34339320       1.73314833       0.00000000
Si       0.46377630       1.19016369      -2.04996300       0.00000000
Si       1.26242613      -3.06582687      -1.80161984       0.00000000
Si      -0.57684519       2.30115798       3.02729787       0.00000000
Si      -3.02627475      -0.31817628       2.39612259       0.00000000
Si      -1.57692087       2.13206778      -2.86007669       0.00000000
Si       1.83591558       3.07367865      -1.64328164       0.00000000
Si       1.53854163      -2.56279167       2.64453487       0.00000000
