10
Lattice="16.28999089631971 0.0 0.0 0.0 16.28999089631971 0.0 0.0 0.0 34.56409401068381" Properties=species:S:1:pos:R:3:initial_magmoms:R:1 pbc="T T T"
Si      -1.38997683       1.74322548       0.80513646       0.00000000
Si      -1.07577531      -0.49353813      -2.06458362       0.00000000
Si       0.09405846      -1.91795202       1.46790333       0.00000000
Si       1.84414203       1.42526097      -0.68530267       0.00000000
Si      -0.97441893       1.72586034      -2.97597016       0.00000000
Si      -1.30699557       3.17953107      -1.10508383       0.00000000
Si       0.56428560      -1.95225876      -3.10413389       0.00000000
Si      -3.32514738      -1.25312454      -1.26964357       0.00000000
Si       0.12494430      -0.89498889       3.69286443       0.00000000
Si      -0.06390567       2.97991341       2.43251860       0.00000000
