10
Lattice="16.28999089631971 0.0 0.0 0.0 16.28999089631971 0.0 0.0 0.0 34.56409401068381" Properties=species:S:1:pos:R:3:initial_magmoms:R:1 pbc="T T T"
Si       1.34749251       1.35285192       1.37233356       0.00000000
Si      -1.36581387      -1.36163223       1.37229899       0.00000000
Si      -1.46337143       1.21614624      -1.42654045       0.00000000
Si       1.41177285      -1.29391470      -1.47522401       0.00000000
Si      -0.40930254      -2.29289895      -2.76196442       0.00000000
Si      -0.11100006       2.51216235      -2.83472187       0.00000000
Si      -2.32016515      -0.57347316      -2.94332232       0.00000000
Si       2.69659773      -2.70798444       0.00566160       0.00000000
Si       2.72624553       2.69816157      -0.00412350       0.00000000
Si       2.70301599      -0.00342090       2.73239685       0.00000000
