10
Lattice="16.28999089631971 0.0 0.0 0.0 16.28999089631971 0.0 0.0 0.0 34.56409401068381" Properties=species:S:1:pos:R:3:initial_magmoms:R:1 pbc="T T T"
Si      -0.77776605       0.98002269      -1.97409477       0.00000000
Si      -1.85538213      -0.69175485       1.30292882       0.00000000
Si       1.07264763       1.93681584       0.97387846       0.00000000
Si       1.04080068      -2.01922695      -0.86462129       0.00000000
Si       2.04074604      -1.20361923      -2.80757380       0.00000000
Si       2.01727215       3.13696530      -0.85653329       0.00000000
Si      -2.22254244      -0.48091338      -3.08166722       0.00000000
Si      -0.94180635      -2.36565009       2.87739331       0.00000000
Si       0.80435133       0.62708355      -3.71629890       0.00000000
Si      -1.90298151       2.98339947      -1.67587560       0.00000000
