10
Lattice="16.28999089631971 0.0 0.0 0.0 16.28999089631971 0.0 0.0 0.0 34.56409401068381" Properties=species:S:1:pos:R:3:initial_magmoms:R:1 pbc="T T T"
Si       1.65729573      -1.56229245      -0.72353058       0.00000000
Si       1.11549033       0.48011517       2.06834485       0.00000000
Si      -0.91357578       1.67389524      -1.57446449       0.00000000
Si      -1.36946772      -2.17458468       1.76622619       0.00000000
Si      -0.69950889      -0.41436873       3.30207708       0.00000000
Si      -3.02759424      -1.32201495      -1.37319766       0.00000000
Si       2.77303041      -1.26809505       1.90306552       0.00000000
Si       0.33122457      -2.79898038      -2.35091273       0.00000000
Si       0.94180635       2.36565009      -2.87739331       0.00000000
Si      -2.54692521       0.46579626      -2.85036417       0.00000000
