10
Lattice="16.28999089631971 0.0 0.0 0.0 16.28999089631971 0.0 0.0 0.0 34.56409401068381" Properties=species:S:1:pos:R:3:initial_magmoms:R:1 pbc="T T T"
Si      -0.05704758      -0.10399536      -2.30103848       0.00000000
Si      -1.65967407      -1.16030412       1.14228484       0.00000000
Si       1.24185186       1.71082467       1.14379875       0.00000000
Si      -0.13590747      -2.31440175       2.55302950       0.00000000
Si       2.59089192       0.40925367       2.56238254       0.00000000
Si       0.06910218       2.15560683      -2.97870249       0.00000000
Si      -2.84786667       0.41523210       2.55838348       0.00000000
Si      -3.03886692      -2.60568324      -0.34540095       0.00000000
Si      -0.13802517       3.11586016       2.57033229       0.00000000
Si       2.33667018       3.36816668      -0.33012361       0.00000000
