10
Lattice="16.28999089631971 0.0 0.0 0.0 16.28999089631971 0.0 0.0 0.0 34.56409401068381" Properties=species:S:1:pos:R:3:initial_magmoms:R:1 pbc="T T T"
Si      -1.41423264       1.31347899      -1.37063991       0.00000000
Si       1.30385160      -1.40157531      -1.39345223       0.00000000
Si      -1.15554744      -1.41665985       1.55248171       0.00000000
Si       1.50934995       1.21472901       1.43696845       0.00000000
Si       2.07265815      -0.75759903       2.79475051       0.00000000
Si      -2.63228481      -2.65686642       0.17427226       0.00000000
Si       2.70044217       2.67947989      -0.00120974       0.00000000
Si      -2.81642697       2.56166766       0.17638067       0.00000000
Si      -1.97343576       0.06180426       3.26945404       0.00000000
Si       2.66484852      -0.05181849      -2.74750137       0.00000000
