10
Lattice="16.28999089631971 0.0 0.0 0.0 16.28999089631971 0.0 0.0 0.0 34.56409401068381" Properties=species:S:1:pos:R:3:initial_magmoms:R:1 pbc="T T T"
Si       0.81788832      -1.47846411      -1.71697233       0.00000000
Si      -0.85260231      -0.42710751       2.31676339       0.00000000
Si      -1.75255965       1.25460693      -1.30396574       0.00000000
Si       2.08269279       1.06525197       1.12343738       0.00000000
Si       2.32332867      -2.58813891      -0.28895599       0.00000000
Si      -2.16502245       1.51122330       2.44810702       0.00000000
Si      -2.51652807      -2.03330151       1.95788420       0.00000000
Si       1.97343576      -0.06180426      -3.26945404       0.00000000
Si      -0.28269666       2.83607338       2.77536004       0.00000000
Si      -0.84299121       2.49986340      -3.09307337       0.00000000
