10
Lattice="16.28999089631971 0.0 0.0 0.0 16.28999089631971 0.0 0.0 0.0 34.56409401068381" Properties=species:S:1:pos:R:3:initial_magmoms:R:1 pbc="T T T"
Si      -2.42890416      -0.54618741      -0.03587755       0.00000000
Si      -0.00755856       1.83444363      -1.73788362       0.00000000
Si       1.45684728      -1.80913482      -1.13916405       0.00000000
Si      -0.16133616       0.66637244       2.61270133       0.00000000
Si       0.47239371       0.55459649      -3.68975366       0.00000000
Si      -2.55505392      -2.80578960       0.64178646       0.00000000
Si       2.40147180      -0.60898536      -2.96957580       0.00000000
Si      -3.49861959       1.23896106       1.09633911       0.00000000
Si      -2.15984223       2.74277078      -1.98971775       0.00000000
Si       1.25765316       3.71823227      -0.92379506       0.00000000
