10
Lattice="16.28999089631971 0.0 0.0 0.0 16.28999089631971 0.0 0.0 0.0 34.56409401068381" Properties=species:S:1:pos:R:3:initial_magmoms:R:1 pbc="T T T"
Si       1.34745993      -1.35070817       1.39215262       0.00000000
Si       1.18495089       1.51100827      -1.41267475       0.00000000
Si      -1.37073834       1.37198941       1.38794617       0.00000000
Si      -1.61477883      -1.10882446      -1.51031837       0.00000000
Si       2.07699129      -0.34650133      -2.69147782       0.00000000
Si      -2.81584053       2.57647201      -0.07742361       0.00000000
Si      -3.58673220       0.46015666      -1.23319572       0.00000000
Si       2.75219550      -2.66528250      -0.02620651       0.00000000
Si      -0.01454697      -2.70099018       2.75674036       0.00000000
Si       2.70111006       0.01663046       2.75829574       0.00000000
