10
Lattice="16.28999089631971 0.0 0.0 0.0 16.28999089631971 0.0 0.0 0.0 34.56409401068381" Properties=species:S:1:pos:R:3:initial_magmoms:R:1 pbc="T T T"
Si       0.24482241       2.31682896       0.28104081       0.00000000
Si      -0.71547309      -1.21437389       1.95373651       0.00000000
Si       1.73615562      -1.16351977      -1.20459391       0.00000000
Si      -1.68448374       0.01966203      -2.08667009       0.00000000
Si      -0.30030615      -1.91456044      -2.38402515       0.00000000
Si      -0.36406521       2.25046350      -2.06755613       0.00000000
Si       2.19673908       2.32886727       1.70083089       0.00000000
Si      -1.76816547      -3.11064785       1.05676320       0.00000000
Si       1.24069527      -1.52364280       3.20336746       0.00000000
Si      -1.70276112       3.01410612       1.51221452       0.00000000
