10
Lattice="16.28999089631971 0.0 0.0 0.0 16.28999089631971 0.0 0.0 0.0 34.56409401068381" Properties=species:S:1:pos:R:3:initial_magmoms:R:1 pbc="T T T"
Si       1.35555606       1.35338949       1.38186634       0.00000000
Si      -1.35811359      -1.36643778       1.38197003       0.00000000
Si       1.39194792      -1.36034532      -1.40294699       0.00000000
Si      -1.49525910       1.30026780      -1.41654106       0.00000000
Si      -0.15555321      -2.58618411      -2.78751421       0.00000000
Si      -2.71265967       2.69347005       0.03528650       0.00000000
Si       2.70986701       2.70146844      -0.00310386       0.00000000
Si      -2.71124244      -2.72520297       0.01310671       0.00000000
Si       2.71078632      -2.73158865       0.01621403       0.00000000
Si      -0.00014661       2.70676269       2.74317394       0.00000000
