10
Lattice="16.28999089631971 0.0 0.0 0.0 16.28999089631971 0.0 0.0 0.0 34.56409401068381" Properties=species:S:1:pos:R:3:initial_magmoms:R:1 pbc="T T T"
Si       1.35754344       1.35684297       1.35712535       0.00000000
Si      -1.35729909      -1.35674523       1.35812770       0.00000000
Si       1.35744570      -1.35783666      -1.35702165       0.00000000
Si      -1.35811359       1.35773892      -1.35698709       0.00000000
Si       2.71379507      -0.00105885       2.71203859       0.00000000
Si      -0.00118917       2.71477737      -2.71338659       0.00000000
Si       0.00245979       2.71443528       2.71390505       0.00000000
Si      -2.71510317       0.00058644      -2.71359397       0.00000000
Si      -0.00050499      -2.71542897      -2.71349028       0.00000000
Si       2.71504742       2.71450044       0.00044933       0.00000000
