10
Lattice="16.28999089631971 0.0 0.0 0.0 16.28999089631971 0.0 0.0 0.0 34.56409401068381" Properties=species:S:1:pos:R:3:initial_magmoms:R:1 pbc="T T T"
Si      -1.34633102      -1.36238157       1.34523529       0.00000000
Si       1.35922037       1.35228177       1.35574278       0.00000000
Si       1.35677361      -1.35617508      -1.35453304       0.00000000
Si      -1.35625163       1.35790182      -1.35491324       0.00000000
Si      -0.02441381       2.68838757       2.65998503       0.00000000
Si      -2.71379507       0.00105885      -2.71203859       0.00000000
Si       0.00109809      -2.71432125      -2.71190033       0.00000000
Si      -2.71216607      -2.71461447       0.00314533       0.00000000
Si      -2.71133528       2.71549413       0.00186646       0.00000000
Si       0.00125235       2.71555929      -2.71158925       0.00000000
