10
Lattice="16.28999089631971 0.0 0.0 0.0 16.28999089631971 0.0 0.0 0.0 34.56409401068381" Properties=species:S:1:pos:R:3:initial_magmoms:R:1 pbc="T T T"
Si       1.38363417      -1.33610580      -1.30424225       0.00000000
Si      -1.34423451       1.38448710      -1.31025641       0.00000000
Si       1.36680660       1.44526509       1.24849034       0.00000000
Si      -1.27063629      -1.54785951       1.36555899       0.00000000
Si       2.43897857      -0.08689086       2.56728408       0.00000000
Si      -0.18854046       2.25390069       2.80418651       0.00000000
Si      -2.68692147       0.02710656      -2.65811857       0.00000000
Si       0.02441381      -2.68838757      -2.65998503       0.00000000
Si       0.02691257       2.74103685      -2.65393631       0.00000000
Si       2.74106033       0.02557530      -2.65580278       0.00000000
