10
Lattice="16.28999089631971 0.0 0.0 0.0 16.28999089631971 0.0 0.0 0.0 34.56409401068381" Properties=species:S:1:pos:R:3:initial_magmoms:R:1 pbc="T T T"
Si       1.59547518      -1.09718037      -1.31181179       0.00000000
Si       1.70430867       0.84650985       1.39058341       0.00000000
Si      -2.08256247      -1.07966862       0.52838160       0.00000000
Si      -1.15232202       1.79642862      -1.13180189       0.00000000
Si       0.12960324      -2.34111735      -2.65314134       0.00000000
Si      -2.53407240       0.53949222      -2.57879393       0.00000000
Si      -1.40181966      -3.27507192       0.91166305       0.00000000
Si       3.51554394      -0.71381151       0.97605600       0.00000000
Si       2.63112822      -2.68148061       0.13182753       0.00000000
Si       2.67757101       2.70457983       0.12681573       0.00000000
