10
Lattice="16.28999089631971 0.0 0.0 0.0 16.28999089631971 0.0 0.0 0.0 34.56409401068381" Properties=species:S:1:pos:R:3:initial_magmoms:R:1 pbc="T T T"
Si      -0.32711949      -1.53580491       1.76321911       0.00000000
Si       0.32759190       1.95688512       1.33991242       0.00000000
Si       1.90948026      -0.99733896      -1.08603900       0.00000000
Si      -1.95191667      -0.01203831      -1.41979008       0.00000000
Si      -2.19673908      -2.32886727      -1.70083089       0.00000000
Si      -1.85758128      -0.39166047       3.15076088       0.00000000
Si       1.99065985       3.22095654       0.10701049       0.00000000
Si       1.65610656      -1.46289087       3.08533101       0.00000000
Si      -1.21173165       3.58231761       0.64949425       0.00000000
Si      -0.39284964       1.37598372       3.59795138       0.00000000
