10
Lattice="16.28999089631971 0.0 0.0 0.0 16.28999089631971 0.0 0.0 0.0 34.56409401068381" Properties=species:S:1:pos:R:3:initial_magmoms:R:1 pbc="T T T"
Si      -1.35742615      -1.36168110       1.35156052       0.00000000
Si       1.35760860      -1.35496962      -1.35871529       0.00000000
Si      -1.35799793       1.35985662      -1.35868073       0.00000000
Si       1.37352393       1.35464382       1.35252832       0.00000000
Si      -2.74106033      -0.02557530       2.65580278       0.00000000
Si       2.71301805      -2.71207323       0.00190103       0.00000000
Si       2.71107954       2.71513575       0.00169364       0.00000000
Si      -0.00107514      -2.71288773      -2.71577151       0.00000000
Si      -2.71414775       2.71546155       0.00186646       0.00000000
Si       2.71440270       0.00232947      -2.71573695       0.00000000
