10
Lattice="16.28999089631971 0.0 0.0 0.0 16.28999089631971 0.0 0.0 0.0 34.56409401068381" Properties=species:S:1:pos:R:3:initial_magmoms:R:1 pbc="T T T"
Si      -0.73140471      -2.04833718       0.81146169       0.00000000
Si      -0.58580469       0.52922952      -2.22686213       0.00000000
Si      -0.82617993       1.74679299       1.36656135       0.00000000
Si       2.36530297      -0.19951992       0.14471994       0.00000000
Si       0.13326849      -3.31328826      -0.99510082       0.00000000
Si       1.30862457       1.94839803      -2.73485090       0.00000000
Si       2.75072681       0.93022416       2.24580326       0.00000000
Si       1.04949954       2.61861750       2.45591851       0.00000000
Si       3.23503829       1.00194903      -1.69934463       0.00000000
Si      -1.82612529       0.93118527       3.30951385       0.00000000
