10
Lattice="16.28999089631971 0.0 0.0 0.0 16.28999089631971 0.0 0.0 0.0 34.56409401068381" Properties=species:S:1:pos:R:3:initial_magmoms:R:1 pbc="T T T"
Si      -0.99994536      -0.81560772       1.94295250       0.00000000
Si       1.87567947       0.87182451       1.08935716       0.00000000
Si       0.82617993      -1.74679299      -1.36656135       0.00000000
Si      -1.23639471       1.83070278      -0.90872510       0.00000000
Si       1.50141672       3.13036785       0.54963853       0.00000000
Si       0.51036570       3.21812208      -1.58020213       0.00000000
Si      -2.81851209       2.18364192       0.83347903       0.00000000
Si      -2.04074604       1.20361923       2.80757380       0.00000000
Si       3.57690674      -0.81656883       0.87924191       0.00000000
Si       0.24037524      -1.21756347      -3.59342348       0.00000000
