10
Lattice="16.28999089631971 0.0 0.0 0.0 16.28999089631971 0.0 0.0 0.0 34.56409401068381" Properties=species:S:1:pos:R:3:initial_magmoms:R:1 pbc="T T T"
Si       1.35719646       1.35685111      -1.35608842       0.00000000
Si      -1.35761892       1.35680224       1.35729817       0.00000000
Si       1.35724533      -1.35758001       1.35709078       0.00000000
Si      -1.35729487      -1.35782736      -1.35754012       0.00000000
Si       2.70942936       0.00229689      -2.71819100       0.00000000
Si       0.00089106      -2.71339176       2.71425069       0.00000000
Si       2.71504941      -0.00149705       2.71355941       0.00000000
Si      -2.71294867      -0.00036490      -2.71594433       0.00000000
Si       2.71451184       2.71454116       0.00006913       0.00000000
Si      -2.71506637       2.71434569       0.00013826       0.00000000
