10
Lattice="16.28999089631971 0.0 0.0 0.0 16.28999089631971 0.0 0.0 0.0 34.56409401068381" Properties=species:S:1:pos:R:3:initial_magmoms:R:1 pbc="T T T"
Si      -1.10288513      -0.02909394       2.08310998       0.00000000
Si      -1.35104536       0.13760163      -1.95017640       0.00000000
Si       1.74979035       1.62201159       0.07355243       0.00000000
Si       1.17783216      -2.06788518      -0.20026447       0.00000000
Si       2.76431526      -1.18918629      -1.81288774       0.00000000
Si       0.44830080      -1.45960029       3.24681455       0.00000000
Si       3.71338695       0.26753067      -0.16967523       0.00000000
Si      -2.48317837       2.27437722      -1.60743865       0.00000000
Si       1.74490335       2.58310530      -2.08307542       0.00000000
Si       2.29055319      -2.31355467       1.89414797       0.00000000
