10
Lattice="16.28999089631971 0.0 0.0 0.0 16.28999089631971 0.0 0.0 0.0 34.56409401068381" Properties=species:S:1:pos:R:3:initial_magmoms:R:1 pbc="T T T"
Si      -0.65951694       1.59022980      -1.64158800       0.00000000
Si       2.34105219      -0.03772764       0.59011311       0.00000000
Si       0.73761120       0.93757095       2.11978251       0.00000000
Si       1.16167248      -1.78077393      -1.84164509       0.00000000
Si      -0.38951345      -0.35026758      -3.00534965       0.00000000
Si      -1.47155389      -2.14806456       2.01118206       0.00000000
Si       1.34249148       2.89466784      -1.59371670       0.00000000
Si      -0.61476016      -0.35844516       3.52796393       0.00000000
Si      -0.10191024      -3.65378184      -0.98587220       0.00000000
Si       3.22867800       2.08446840      -0.15111430       0.00000000
