10
Lattice="16.28999089631971 0.0 0.0 0.0 16.28999089631971 0.0 0.0 0.0 34.56409401068381" Properties=species:S:1:pos:R:3:initial_magmoms:R:1 pbc="T T T"
Si      -1.35431095      -1.34807895       1.38497020       0.00000000
Si       1.36427080       1.36629117       1.38732056       0.00000000
Si       1.26766133      -1.49139837      -1.41335079       0.00000000
Si      -1.43162329       1.31272965      -1.46793789       0.00000000
Si      -2.70986701      -2.70146844       0.00310386       0.00000000
Si      -2.70398632       2.71839375       0.01455495       0.00000000
Si       2.71316262       2.71033020       0.01016531       0.00000000
Si       2.73103275      -2.70754461       0.01318967       0.00000000
Si       2.62003269      -0.19538226      -2.82153221       0.00000000
Si       0.00650292      -2.70971118       2.74399657       0.00000000
