10
Lattice="16.28999089631971 0.0 0.0 0.0 16.28999089631971 0.0 0.0 0.0 34.56409401068381" Properties=species:S:1:pos:R:3:initial_magmoms:R:1 pbc="T T T"
Si      -0.78990210      -0.38911923       2.17048806       0.00000000
Si       1.94158881       1.30828248       0.25442644       0.00000000
Si      -1.62004050       1.12694220      -1.29290522       0.00000000
Si       0.33076845      -1.98294912      -1.25070244       0.00000000
Si      -0.76867623       1.91632302       2.76668445       0.00000000
Si       0.32588145      -1.02185541      -3.40733029       0.00000000
Si      -3.51677642      -0.20083941      -0.83061021       0.00000000
Si       2.58926292       1.81333764      -1.97685990       0.00000000
Si      -1.90394262       3.20777793      -0.18910026       0.00000000
Si       3.66683013      -0.08050518       1.12475081       0.00000000
