10
Lattice="16.290000149 0.0 0.0 0.0 16.290000149 0.0 0.0 0.0 29.1751946751" Properties=species:S:1:pos:R:3:initial_magmoms:R:1 pbc="T T T"
Si       1.09266805      -1.42399036      -1.48854761       0.00000000
Si      -1.54430830       1.32543586      -1.18725537       0.00000000
Si      -1.04640445      -1.75914083       1.19221516       0.00000000
Si       2.12133269       0.97119352       0.68687161       0.00000000
Si       0.20976633       0.81920782       3.38884474       0.00000000
Si       2.40482756      -2.69180849      -0.05073566       0.00000000
Si      -0.20341323       2.70515000      -2.50218140       0.00000000
Si       2.49655655      -0.08993709      -2.73427007       0.00000000
Si      -1.41652954      -0.86244148       3.32025385       0.00000000
Si       0.57609586      -3.52253334       1.12928426       0.00000000
