10
Lattice="16.290000149 0.0 0.0 0.0 16.290000149 0.0 0.0 0.0 29.1751946751" Properties=species:S:1:pos:R:3:initial_magmoms:R:1 pbc="T T T"
Si       1.34293132       1.35565870      -1.36674117       0.00000000
Si      -1.35749458      -1.36182284      -1.35022801       0.00000000
Si       1.38958588      -1.34918180       1.33298547       0.00000000
Si      -1.38489436       1.35497452       1.33342310       0.00000000
Si       0.02743236      -2.70092601       2.68268833       0.00000000
Si      -0.03003876       2.72250374       2.67189350       0.00000000
Si       2.70314633      -0.00185380      -2.70585343       0.00000000
Si      -2.70217219      -0.00164855      -2.70780817       0.00000000
Si       2.71625978       2.70233672      -0.02316510       0.00000000
Si      -2.71073096       2.71461938      -0.04408372       0.00000000
