10
Lattice="16.290000149 0.0 0.0 0.0 16.290000149 0.0 0.0 0.0 29.1751946751" Properties=species:S:1:pos:R:3:initial_magmoms:R:1 pbc="T T T"
Si      -1.39743766       1.42333876      -1.22681694       0.00000000
Si      -1.32685309      -1.38267892       1.37505902       0.00000000
Si       1.19829241      -1.47211102      -1.43031392       0.00000000
Si       1.30854313       1.44694297       1.36985125       0.00000000
H        3.22592502       1.73519453      -0.50394314       0.00000000
Si      -0.00226431       2.65859318      -2.65132499       0.00000000
Si       2.67025682      -2.68123628       0.02506149       0.00000000
Si       2.52820802      -0.13496265      -2.82442142       0.00000000
Si      -2.89709508       0.13315446      -2.51417240       0.00000000
Si       2.73556344       0.07991874       2.70477103       0.00000000
