10
Lattice="16.290000149 0.0 0.0 0.0 16.290000149 0.0 0.0 0.0 29.1751946751" Properties=species:S:1:pos:R:3:initial_magmoms:R:1 pbc="T T T"
Si      -1.81830611       1.45679842       0.16017182       0.00000000
Si       0.37012509      -0.89669935      -2.12803870       0.00000000
Si       1.62629587       1.68164930       0.06859088       0.00000000
Si       0.19820043      -1.49317399       1.85650516       0.00000000
H       -0.93537181      -1.41622003       2.85304229       0.00000000
Si       1.06943851       2.71795394       2.07671953       0.00000000
Si       2.26414712      -0.80901028       2.76318269       0.00000000
Si       1.41652954       0.86244148      -3.32025385       0.00000000
Si      -3.64156437       0.15688899       0.79940033       0.00000000
H       -1.82925299       0.32930235       3.29081608       0.00000000
