10
Lattice="16.290000149 0.0 0.0 0.0 16.290000149 0.0 0.0 0.0 29.1751946751" Properties=species:S:1:pos:R:3:initial_magmoms:R:1 pbc="T T T"
Si       1.35234206      -1.33485148       1.37187600       0.00000000
Si      -1.27320328       1.36045936       1.42383703       0.00000000
Si      -1.37825293      -1.36085032      -1.33701165       0.00000000
Si       1.34390384       1.36902790      -1.36391118       0.00000000
Si       2.66047794       0.13768308       2.65187932       0.00000000
Si      -2.64273161       2.71164971       0.04705959       0.00000000
Si       0.01707355      -2.69879853      -2.68575172       0.00000000
Si      -0.06129275      -2.62736037       2.75903981       0.00000000
Si      -2.67881396       0.01617597      -2.71915732       0.00000000
Si       2.71868211       0.02257794      -2.72411710       0.00000000
