10
Lattice="16.290000149 0.0 0.0 0.0 16.290000149 0.0 0.0 0.0 29.1751946751" Properties=species:S:1:pos:R:3:initial_magmoms:R:1 pbc="T T T"
Si      -1.43309647       1.32067918      -1.28204558       0.00000000
Si      -1.37961640      -1.31719312       1.36434880       0.00000000
Si       1.33628500       1.40322061       1.33782855       0.00000000
Si       1.34675947      -1.27858582      -1.46004344       0.00000000
Si      -0.07732863       2.66121587      -2.59728378       0.00000000
Si       2.68662827      -2.61415406      -0.03749013       0.00000000
Si      -0.02375082      -2.68771970       2.70314014       0.00000000
Si      -2.75221182      -2.64315026      -0.00023340       0.00000000
Si       2.69915528       0.06579531       2.70413209       0.00000000
Si      -2.74892124       0.06103863       2.68732718       0.00000000
