10
Lattice="16.290000149 0.0 0.0 0.0 16.290000149 0.0 0.0 0.0 29.1751946751" Properties=species:S:1:pos:R:3:initial_magmoms:R:1 pbc="T T T"
Si      -1.40328577       1.27029421      -1.37059230       0.00000000
Si      -1.39870828      -1.31077486       1.33995834       0.00000000
Si       1.41449329      -1.37974672      -1.25377482       0.00000000
Si       0.88244560       1.88892326       1.08304158       0.00000000
H        2.93296566      -0.24283503       1.75316662       0.00000000
Si      -2.59436171       2.72179838       0.03416415       0.00000000
Si      -2.47919141       0.13708035       2.82520915       0.00000000
Si      -0.02800251       2.60519456      -2.71720258       0.00000000
Si       0.02941974      -2.72995967      -2.59752593       0.00000000
Si       2.76063375      -0.04624731      -2.62083691       0.00000000
