10
Lattice="16.290000149 0.0 0.0 0.0 16.290000149 0.0 0.0 0.0 29.1751946751" Properties=species:S:1:pos:R:3:initial_magmoms:R:1 pbc="T T T"
Si       1.37350765       1.34146522      -1.34488895       0.00000000
Si       1.36207207      -1.39375612       1.30576501       0.00000000
Si      -1.35526285      -1.35117406      -1.36093531       0.00000000
Si      -1.35249355       1.36876726       1.35081151       0.00000000
Si       0.00467523       2.69267186      -2.68388451       0.00000000
Si       2.78264154      -0.07995132       2.61526445       0.00000000
Si      -2.73292446       0.00682551       2.67020134       0.00000000
Si       0.01404198      -2.72940581      -2.68391368       0.00000000
Si       0.01839141      -2.75553498       2.66174054       0.00000000
Si       0.02500515       2.73162126       2.68796904       0.00000000
