10
Lattice="16.290000149 0.0 0.0 0.0 16.290000149 0.0 0.0 0.0 29.1751946751" Properties=species:S:1:pos:R:3:initial_magmoms:R:1 pbc="T T T"
Si       1.38043090       1.33560082       1.33526113       0.00000000
Si       1.37692855      -1.36547668      -1.31364232       0.00000000
Si      -1.35325918      -1.35197227       1.36125623       0.00000000
Si      -1.35128809       1.37751499      -1.34167968       0.00000000
Si      -0.04953789       2.65719224       2.62244155       0.00000000
Si      -0.00283446      -2.70018155      -2.65765601       0.00000000
Si       2.73194705      -0.00879660      -2.67160175       0.00000000
Si      -2.71492400       0.02386485      -2.69214109       0.00000000
Si       0.00788436      -2.67796199       2.74211820       0.00000000
Si       2.72411156       2.69737967      -0.02071439       0.00000000
