10
Lattice="16.290000149 0.0 0.0 0.0 16.290000149 0.0 0.0 0.0 29.1751946751" Properties=species:S:1:pos:R:3:initial_magmoms:R:1 pbc="T T T"
Si       1.21578787      -1.41771871       1.44623803       0.00000000
Si      -1.48928068      -1.25375986      -1.37100075       0.00000000
Si      -1.48183615       1.29798575       1.33963741       0.00000000
Si       1.61725492       1.48770544      -0.93949962       0.00000000
Si       2.55774179      -2.77332366       0.10161720       0.00000000
H        1.14826582      -1.08559819      -3.43987215       0.00000000
Si       0.88858693       3.67808655      -0.53848657       0.00000000
Si      -2.79899670      -2.62102844       0.11226615       0.00000000
H        3.06607125      -0.68602078      -2.20748275       0.00000000
Si      -0.18362088       2.58172882       2.84455231       0.00000000
