10
Lattice="16.290000149 0.0 0.0 0.0 16.290000149 0.0 0.0 0.0 29.1751946751" Properties=species:S:1:pos:R:3:initial_magmoms:R:1 pbc="T T T"
Si       1.38704464       1.35920503      -1.30494811       0.00000000
Si       1.38171781      -1.34646625       1.33648649       0.00000000
Si      -1.31774698       1.37062432       1.38876844       0.00000000
Si      -1.33051834      -1.34472322      -1.41555127       0.00000000
Si       0.01710450       2.72047238      -2.61850290       0.00000000
Si      -2.67626946      -2.69262299      -0.04659279       0.00000000
Si       0.01624113      -2.69118947       2.68187142       0.00000000
Si      -2.66242459       2.73079861       0.03118828       0.00000000
Si       2.71125875       0.00764001      -2.68960285       0.00000000
Si      -2.69325993       0.02220327       2.73957996       0.00000000
