10
Lattice="16.290000149 0.0 0.0 0.0 16.290000149 0.0 0.0 0.0 29.1751946751" Properties=species:S:1:pos:R:3:initial_magmoms:R:1 pbc="T T T"
Si      -1.26248479       1.42715062       1.32749411       0.00000000
Si       1.63320935      -1.18379431       1.21360787       0.00000000
Si       0.68224801       1.76427218      -1.50616943       0.00000000
Si      -1.33407934      -1.97853455      -0.48518349       0.00000000
Si       0.29741631      -2.59045537       2.56622387       0.00000000
Si       0.16273547       0.85066381      -3.59709728       0.00000000
Si      -2.58555860       0.10112832       2.69128042       0.00000000
Si      -0.40382422      -2.79426445      -2.48024165       0.00000000
Si       0.24421317       2.81232192       2.49387522       0.00000000
Si      -2.40035759       2.93053845      -0.05505359       0.00000000
