10
Lattice="16.290000149 0.0 0.0 0.0 16.290000149 0.0 0.0 0.0 29.1751946751" Properties=species:S:1:pos:R:3:initial_magmoms:R:1 pbc="T T T"
Si      -1.35954712       1.35198856       1.35416666       0.00000000
Si      -1.36058968      -1.34390872      -1.36283169       0.00000000
Si       1.32579424      -1.36738261       1.38841834       0.00000000
Si       1.35576784       1.37777563      -1.35650068       0.00000000
Si       2.70181055       0.01622484       2.69596304       0.00000000
Si       0.01539405       2.71655300       2.68543079       0.00000000
Si       2.69648372      -2.70637013       0.02392366       0.00000000
Si       0.00197109      -2.70516141      -2.70985043       0.00000000
Si      -2.71419095       2.70233183      -0.01616306       0.00000000
Si      -2.72451881      -2.69339351      -0.01330389       0.00000000
