10
Lattice="16.290000149 0.0 0.0 0.0 16.290000149 0.0 0.0 0.0 29.1751946751" Properties=species:S:1:pos:R:3:initial_magmoms:R:1 pbc="T T T"
Si      -1.32995161       1.40875921      -1.31110407       0.00000000
Si       1.33559251       1.37687968       1.34474307       0.00000000
Si       1.35014274      -1.32646213      -1.40685706       0.00000000
Si      -1.38478375      -1.33253830       1.36714962       0.00000000
Si      -2.72048232       0.06411744      -2.58670485       0.00000000
Si       2.64464552      -2.67991679       0.02409871       0.00000000
Si       2.67983192       0.01886382       2.70710796       0.00000000
Si       2.66671847       2.73470006      -0.03810280       0.00000000
Si      -0.05133321       2.73803951       2.66900516       0.00000000
Si      -2.75397456      -2.68058468       0.02926272       0.00000000
