10
Lattice="16.290000149 0.0 0.0 0.0 16.290000149 0.0 0.0 0.0 29.1751946751" Properties=species:S:1:pos:R:3:initial_magmoms:R:1 pbc="T T T"
Si      -1.33559251      -1.37687968      -1.34474307       0.00000000
Si       1.34423941      -1.35801586       1.36236489       0.00000000
Si       1.33112596       1.35782038      -1.38284588       0.00000000
Si      -1.38692573       1.36115983       1.32426209       0.00000000
Si      -2.66554413       0.03187953      -2.65584715       0.00000000
Si      -0.03272824       2.71309952       2.68543079       0.00000000
Si       2.69174822       2.71178003      -0.02911684       0.00000000
Si       2.69580443       0.00228060       2.71130919       0.00000000
Si       2.70209237      -2.71402805       0.00848998       0.00000000
Si      -2.72523069       0.00219915       2.70322766       0.00000000
