10
Lattice="16.290000149 0.0 0.0 0.0 16.290000149 0.0 0.0 0.0 29.1751946751" Properties=species:S:1:pos:R:3:initial_magmoms:R:1 pbc="T T T"
Si      -1.44467866       1.19431765       1.35699111       0.00000000
Si      -1.35593074      -1.34534224      -1.34389699       0.00000000
Si       1.28221849      -1.49679037       1.33283201       0.00000000
Si       1.30971601       1.36726858      -1.48326690       0.00000000
Si       2.16161786      -0.50645610      -2.59808026       0.00000000
Si       0.36440730      -2.10450512      -2.72417545       0.00000000
Si      -0.01765836       2.55391364       2.63531364       0.00000000
Si      -2.80136689       2.43682112      -0.10004174       0.00000000
Si       2.69316056      -0.19911267       2.67740470       0.00000000
Si      -2.79050961      -0.26736777       2.58990829       0.00000000
