10
Lattice="16.290000149 0.0 0.0 0.0 16.290000149 0.0 0.0 0.0 29.1751946751" Properties=species:S:1:pos:R:3:initial_magmoms:R:1 pbc="T T T"
Si      -1.35576784      -1.34053669       1.31523820       0.00000000
Si      -1.40647861       1.36290286      -1.25482512       0.00000000
Si       1.33835383      -1.15372297      -1.55680881       0.00000000
Si       1.42188895       1.45990981       1.22494097       0.00000000
Si       0.42536448       2.38659905      -2.19636992       0.00000000
Si       2.17186427       0.84471796      -2.64794563       0.00000000
Si       0.07732863      -2.66121587       2.59728378       0.00000000
Si      -2.69205284       0.10033011       2.60466510       0.00000000
Si      -2.66009186      -2.63551025      -0.16068822       0.00000000
Si       2.76537414      -2.52074720      -0.22188903       0.00000000
