10
Lattice="16.290000149 0.0 0.0 0.0 16.290000149 0.0 0.0 0.0 29.1751946751" Properties=species:S:1:pos:R:3:initial_magmoms:R:1 pbc="T T T"
Si       0.17917371      -1.38771579      -0.61049095       0.00000000
Si      -0.69483367       1.82609273       1.92108446       0.00000000
Si      -0.51204357       1.28350540      -2.39910543       0.00000000
Si      -2.53364888       0.94467340       0.73515364       0.00000000
Si      -2.44995086       0.25397739      -1.49493698       0.00000000
Si       1.21147102       2.61736319       0.79748936       0.00000000
Si       2.05218164      -0.77984466       2.05437133       0.00000000
Si       1.01219545      -2.63350658       1.10227386       0.00000000
Si       2.91706662       0.94892509       0.67172939       0.00000000
Si       2.07420572      -1.37079700      -1.94980744       0.00000000
