10
Lattice="16.290000149 0.0 0.0 0.0 16.290000149 0.0 0.0 0.0 29.1751946751" Properties=species:S:1:pos:R:3:initial_magmoms:R:1 pbc="T T T"
Si       1.34622190      -1.34519563       1.36510736       0.00000000
Si      -1.35423658       1.32823774       1.40166388       0.00000000
Si      -1.42188895      -1.45990981      -1.22494097       0.00000000
Si       1.46025190       1.43723641      -1.21446124       0.00000000
Si      -0.99652447       0.92668924      -3.42131089       0.00000000
Si       0.04346172       2.78035116      -2.46921343       0.00000000
Si      -2.82836757      -0.09700695      -2.47976609       0.00000000
Si       2.69032610      -2.64826532      -0.05776689       0.00000000
Si      -0.08353512      -2.61363278      -2.78174978       0.00000000
Si      -0.00827532      -2.71790507       2.71017136       0.00000000
