10
Lattice="16.290000149 0.0 0.0 0.0 16.290000149 0.0 0.0 0.0 29.1751946751" Properties=species:S:1:pos:R:3:initial_magmoms:R:1 pbc="T T T"
Si      -1.36062226      -1.35395965      -1.35372903       0.00000000
Si      -1.36769212       1.35433432       1.35194935       0.00000000
Si       1.35443206       1.34408791      -1.37601888       0.00000000
Si       1.35081568      -1.36037791       1.36379448       0.00000000
Si       2.68871339       2.69485472       0.01902223       0.00000000
Si       0.01826109      -2.71313210      -2.68971955       0.00000000
Si      -2.69174822      -2.71178003       0.02911684       0.00000000
Si      -0.02204037       2.69141753      -2.73514533       0.00000000
Si       2.71445159      -0.00672777       2.71425589       0.00000000
Si      -2.71981263       2.71300178      -0.00802318       0.00000000
