10
Lattice="16.290000149 0.0 0.0 0.0 16.290000149 0.0 0.0 0.0 29.1751946751" Properties=species:S:1:pos:R:3:initial_magmoms:R:1 pbc="T T T"
Si      -0.47203533       2.02639457      -1.06862903       0.00000000
Si       1.59734854       0.81824671       1.55664251       0.00000000
Si       1.30000717      -1.49551975      -1.32221982       0.00000000
Si      -1.86732272      -0.89596630       1.28006167       0.00000000
H       -2.79143814      -0.73989181      -1.25844285       0.00000000
H        1.03420324       1.18025938      -2.73721676       0.00000000
H       -1.09773424       1.94342960      -2.45666809       0.00000000
Si      -2.18558045       2.47015046       0.46274776       0.00000000
Si       2.22568643      -2.54005085       0.51313332       0.00000000
Si       3.29787795      -0.78043762       1.57738608       0.00000000
