10
Lattice="16.290000149 0.0 0.0 0.0 16.290000149 0.0 0.0 0.0 29.1751946751" Properties=species:S:1:pos:R:3:initial_magmoms:R:1 pbc="T T T"
Si      -0.62657857       0.85915090      -1.07484335       0.00000000
Si       2.15358689       0.27815175       1.32446631       0.00000000
Si       2.27304146      -1.45658665      -0.48459998       0.00000000
Si       0.39866517       1.25560063       2.57888298       0.00000000
Si      -2.07265817       2.07360299       0.20685213       0.00000000
Si       0.44207802      -2.64937142      -1.48851843       0.00000000
Si      -2.06206967      -0.47257290      -2.28532217       0.00000000
Si      -0.66450169      -2.28964586       2.15342112       0.00000000
Si      -1.35705475      -0.24083136       2.91854060       0.00000000
Si      -1.30383532      -2.96595942       0.00650607       0.00000000
