10
Lattice="16.290000149 0.0 0.0 0.0 16.290000149 0.0 0.0 0.0 29.1751946751" Properties=species:S:1:pos:R:3:initial_magmoms:R:1 pbc="T T T"
Si       0.27364757      -0.82261243      -2.15406297       0.00000000
Si      -2.26801600       0.48786921      -0.12218572       0.00000000
Si       1.28908473       1.98426700       0.11836376       0.00000000
Si       1.02784199      -1.54245124       1.48565926       0.00000000
Si      -2.54203009       1.22216215       2.08678497       0.00000000
Si       3.35739347       1.26084927       0.96482369       0.00000000
Si       2.57438203      -0.23560227       2.67486937       0.00000000
Si       1.19370678       0.90806977      -3.43421217       0.00000000
Si       1.92605631      -2.47495601      -2.05728885       0.00000000
Si       2.38569496      -2.89123068       0.15783780       0.00000000
