10
Lattice="16.290000149 0.0 0.0 0.0 16.290000149 0.0 0.0 0.0 29.1751946751" Properties=species:S:1:pos:R:3:initial_magmoms:R:1 pbc="T T T"
Si       0.97021612      -1.45070596      -1.51982342       0.00000000
Si      -1.69546322       0.93602341      -1.30007585       0.00000000
Si      -1.26798103      -1.47983248       1.32706291       0.00000000
Si       1.49965741       1.29018430       1.28735547       0.00000000
H       -1.16041816       1.20752884      -2.68192977       0.00000000
Si      -0.92931193      -2.95243221      -1.83867912       0.00000000
Si      -2.64285704      -2.50867631      -0.30730233       0.00000000
Si      -2.57486258      -0.05431086       2.63083642       0.00000000
Si       0.15770349       2.64578924       2.63197629       0.00000000
H        0.09018144       2.97790977      -2.25413389       0.00000000
