10
Lattice="16.290000149 0.0 0.0 0.0 16.290000149 0.0 0.0 0.0 29.1751946751" Properties=species:S:1:pos:R:3:initial_magmoms:R:1 pbc="T T T"
Si       1.42069978      -1.37220445       1.25683821       0.00000000
Si       1.36904419       1.32110272      -1.36852086       0.00000000
Si      -1.34439742       1.33419988       1.40081780       0.00000000
Si      -1.36062226      -1.37570680      -1.35305800       0.00000000
Si       0.10480986      -2.60216462       2.75192106       0.00000000
Si      -2.69382031       2.68643279       0.01642563       0.00000000
Si      -0.00550602       2.67538817      -2.71265125       0.00000000
Si       2.77710294       2.64288962      -0.01082400       0.00000000
Si      -2.81214924      -0.04264722       2.61689826       0.00000000
Si       0.05828562       2.73383670       2.70208983       0.00000000
