10
Lattice="16.290000149 0.0 0.0 0.0 16.290000149 0.0 0.0 0.0 29.1751946751" Properties=species:S:1:pos:R:3:initial_magmoms:R:1 pbc="T T T"
Si      -1.35679411      -1.34915410      -1.35515862       0.00000000
Si      -1.34426710       1.33079527       1.38646360       0.00000000
Si       1.34027605       1.35345466      -1.38570505       0.00000000
Si       1.34646625      -1.38030058       1.35451676       0.00000000
Si       0.06784785      -2.70958088      -2.62559247       0.00000000
Si      -2.70713738       2.66822057       0.02016006       0.00000000
Si       2.70532757       2.68332140      -0.00688535       0.00000000
Si      -2.69628824      -0.06152733       2.71279713       0.00000000
Si       2.69481074      -0.03489318      -2.71594805       0.00000000
Si       2.70066374      -0.02836089       2.71568547       0.00000000
