10
Lattice="16.290000149 0.0 0.0 0.0 16.290000149 0.0 0.0 0.0 29.1751946751" Properties=species:S:1:pos:R:3:initial_magmoms:R:1 pbc="T T T"
H       -1.04793571       1.11185278       0.02217315       0.00000000
Si      -0.83067598      -1.92896896       1.02203624       0.00000000
Si       0.27401409      -0.73429293      -2.20897069       0.00000000
Si       1.86732109       0.89829903       1.12362427       0.00000000
Si       2.54203009      -1.22216215      -2.08678497       0.00000000
Si      -2.39081816      -2.70888530      -0.57145454       0.00000000
Si       0.93706597       1.71402893       3.11868243       0.00000000
H        0.16602768       3.29060772      -1.71906082       0.00000000
Si      -2.88289020       0.53442766       2.39758832       0.00000000
Si       0.93597454      -3.08678073       2.05396288       0.00000000
