10
Lattice="16.290000149 0.0 0.0 0.0 16.290000149 0.0 0.0 0.0 29.1751946751" Properties=species:S:1:pos:R:3:initial_magmoms:R:1 pbc="T T T"
Si      -1.31928476       1.35711991      -1.37774022       0.00000000
Si       1.31320207       1.43112538       1.32046931       0.00000000
Si      -1.34390384      -1.36902790       1.36391118       0.00000000
Si       1.37477827      -1.34644996      -1.36020593       0.00000000
Si       2.66971925       0.08110791       2.62988122       0.00000000
Si      -2.63832565       2.69633711       0.02310675       0.00000000
Si       2.69402393       2.68517846      -0.10257998       0.00000000
Si      -2.66921426      -0.00226431      -2.72688875       0.00000000
Si      -2.61710712      -0.00856854       2.78774820       0.00000000
Si       0.01992267      -2.71397918      -2.69867633       0.00000000
