10
Lattice="16.290000149 0.0 0.0 0.0 16.290000149 0.0 0.0 0.0 29.1751946751" Properties=species:S:1:pos:R:3:initial_magmoms:R:1 pbc="T T T"
Si       1.29968137      -1.35013150       1.41867302       0.00000000
Si      -1.37759644       1.34882830       1.35040306       0.00000000
Si      -1.42869817      -1.40377447      -1.24210182       0.00000000
Si       1.42706917       1.39066102      -1.28142415       0.00000000
Si      -2.63153549      -0.00636939      -2.68315513       0.00000000
Si       2.71423982      -0.05826933      -2.60941482       0.00000000
Si       0.05320314       2.65515599      -2.69967412       0.00000000
Si      -0.11308518      -2.72674240      -2.64239738       0.00000000
Si       2.62997165      -2.76979361       0.13254291       0.00000000
Si      -0.02914281       2.70501968       2.71195105       0.00000000
