10
Lattice="16.290000149 0.0 0.0 0.0 16.290000149 0.0 0.0 0.0 29.1751946751" Properties=species:S:1:pos:R:3:initial_magmoms:R:1 pbc="T T T"
Si       1.47291691      -1.29095286       1.26804149       0.00000000
Si      -1.40203144      -1.41992764      -1.25508770       0.00000000
Si      -1.23312043       1.42938887       1.41741848       0.00000000
Si       1.38266263       1.33795310      -1.38176639       0.00000000
Si       0.15804558      -2.62071242       2.63609554       0.00000000
Si      -2.57996135       2.71638033      -0.03506858       0.00000000
Si      -2.65776239      -0.03821471      -2.70068942       0.00000000
Si       0.02845863      -2.69986553      -2.66865506       0.00000000
Si       2.69962281       0.07144305       2.71428506       0.00000000
Si       2.76091556       2.69880342      -0.04475475       0.00000000
