10
Lattice="16.290000149 0.0 0.0 0.0 16.290000149 0.0 0.0 0.0 29.1751946751" Properties=species:S:1:pos:R:3:initial_magmoms:R:1 pbc="T T T"
Si       2.20501442      -0.37879137       0.80164682       0.00000000
Si       0.04991256       2.29482119       0.66440671       0.00000000
Si       0.14379183      -0.41971185      -2.35732655       0.00000000
Si      -1.52220277      -1.37279089       1.28137455       0.00000000
H       -2.16712388      -0.22055031      -1.44052524       0.00000000
H       -0.87420286       2.45089568      -1.87409781       0.00000000
Si       0.48830904       2.04718061       2.94781324       0.00000000
Si      -0.72485614       1.65299519      -3.14896629       0.00000000
Si       2.12131640       0.31190463       3.03173744       0.00000000
Si       2.44380953      -0.35259705      -2.81260547       0.00000000
