10
Lattice="16.290000149 0.0 0.0 0.0 16.290000149 0.0 0.0 0.0 29.1751946751" Properties=species:S:1:pos:R:3:initial_magmoms:R:1 pbc="T T T"
Si       1.32991561       1.33714837      -1.39410750       0.00000000
Si      -1.19829241       1.47211102       1.43031392       0.00000000
Si       1.47196441      -1.20912526       1.45537541       0.00000000
Si      -1.55729143      -1.12389598      -1.47585640       0.00000000
H        1.83417257      -3.02159955      -0.79324437       0.00000000
Si      -2.52514550       0.08943210       2.80537294       0.00000000
Si      -0.17096355       2.64541457      -2.69561294       0.00000000
Si       2.92470663       2.46332495      -0.05344896       0.00000000
Si      -2.59573007       2.89544979       0.20349698       0.00000000
H        2.02763261       3.20730555       0.92637078       0.00000000
