10
Lattice="16.290000149 0.0 0.0 0.0 16.290000149 0.0 0.0 0.0 29.1751946751" Properties=species:S:1:pos:R:3:initial_magmoms:R:1 pbc="T T T"
Si      -1.36021501       1.35751250       1.33911226       0.00000000
Si       1.34853508       1.37401427      -1.33727422       0.00000000
Si       1.38197845      -1.36031112       1.32230735       0.00000000
Si      -1.35584929      -1.37138832      -1.33809113       0.00000000
Si       2.67882536      -0.04564784      -2.62340433       0.00000000
Si       0.00632052      -2.71645364       2.65584715       0.00000000
Si      -2.72578944      -0.01012098      -2.65164592       0.00000000
Si       0.01311345       2.70419052       2.68268833       0.00000000
Si       2.73298961       0.00833722       2.67343979       0.00000000
Si      -2.70314633       0.00185380       2.70585343       0.00000000
