10
Lattice="16.290000149 0.0 0.0 0.0 16.290000149 0.0 0.0 0.0 29.1751946751" Properties=species:S:1:pos:R:3:initial_magmoms:R:1 pbc="T T T"
Si       1.34614045       1.33349941      -1.36706210       0.00000000
Si      -1.41449329       1.37974672       1.25377482       0.00000000
Si       1.33763707      -1.38057751       1.34996543       0.00000000
Si      -1.38507355      -1.35021295      -1.34375112       0.00000000
H        1.51847236       1.13691169       3.00694144       0.00000000
Si      -0.17138709      -2.71138907       2.53258195       0.00000000
Si       2.70552467       2.65069253       0.01417914       0.00000000
Si      -0.01580130      -2.73790919      -2.65788941       0.00000000
Si       2.71355564      -0.02350647      -2.69791778       0.00000000
Si      -2.81320158       0.06897186       2.59373316       0.00000000
