10
Lattice="16.290000149 0.0 0.0 0.0 16.290000149 0.0 0.0 0.0 29.1751946751" Properties=species:S:1:pos:R:3:initial_magmoms:R:1 pbc="T T T"
Si      -1.40884066       1.44870229       1.14261732       0.00000000
Si      -1.35938422      -1.31719312      -1.38124124       0.00000000
Si       1.34576578       1.38759850      -1.35145337       0.00000000
Si       1.35879778      -1.31536864       1.41000798       0.00000000
H       -0.54789787       2.43097301       1.88427995       0.00000000
H       -1.18705231      -1.51378084       2.99276229       0.00000000
Si      -2.70552467      -2.65069253      -0.01417914       0.00000000
Si       0.00803097      -2.67419900      -2.71209692       0.00000000
Si       2.73052982      -2.67905342       0.06465223       0.00000000
Si       2.72732069       0.04100193      -2.68802739       0.00000000
