10
Lattice="16.290000149 0.0 0.0 0.0 16.290000149 0.0 0.0 0.0 29.1751946751" Properties=species:S:1:pos:R:3:initial_magmoms:R:1 pbc="T T T"
Si      -1.22129389       1.85445362       0.67073773       0.00000000
Si      -1.53701038      -0.71428393      -1.61300899       0.00000000
Si       1.62092017       0.68299084      -1.55833467       0.00000000
Si       0.07498287      -1.45846000       1.93510314       0.00000000
H        0.33545997      -2.56671758      -0.88272469       0.00000000
H        0.07540641       2.40217229       1.59092337       0.00000000
H        1.54942336      -0.38796264      -2.62395866       0.00000000
Si      -2.75071314      -2.03546810      -0.11229532       0.00000000
H       -0.25811505       3.10954926      -2.00416082       0.00000000
Si       2.32046165      -1.96454144       2.21378460       0.00000000
