10
Lattice="16.290000149 0.0 0.0 0.0 16.290000149 0.0 0.0 0.0 29.1751946751" Properties=species:S:1:pos:R:3:initial_magmoms:R:1 pbc="T T T"
Si       1.36021501      -1.35751250      -1.33911226       0.00000000
Si       1.37332846       1.34667802       1.34357607       0.00000000
Si      -1.34293132      -1.35565870       1.36674117       0.00000000
Si      -1.32879160       1.37046142      -1.37321806       0.00000000
Si       0.00338832       2.70361874       2.67767019       0.00000000
Si       2.70875009       0.01650177      -2.67638648       0.00000000
Si       0.04665456      -2.70484049       2.69972664       0.00000000
Si       0.00436572      -2.72890083      -2.67720339       0.00000000
Si      -2.68664456       2.72647361      -0.01934315       0.00000000
Si      -2.70042590      -2.71748153       0.01651316       0.00000000
