10
Lattice="16.290000149 0.0 0.0 0.0 16.290000149 0.0 0.0 0.0 29.1751946751" Properties=species:S:1:pos:R:3:initial_magmoms:R:1 pbc="T T T"
H        0.62657857      -0.85915090       1.07484335       0.00000000
Si      -1.44607960       1.21445209       1.28169548       0.00000000
Si      -1.43549110      -1.33172380      -1.21047883       0.00000000
Si       1.50902416       1.33081156      -1.18261652       0.00000000
Si       0.00065160       2.23283774       2.76000259       0.00000000
Si       0.09023031      -2.64885991      -2.40321914       0.00000000
Si       1.06865659      -3.50852231      -0.41367509       0.00000000
Si      -2.67587687       0.06516000      -2.57474011       0.00000000
Si       0.17138709       2.71138907      -2.53258195       0.00000000
Si       2.78016546      -0.58099915       2.39930966       0.00000000
