10
Lattice="16.290000149 0.0 0.0 0.0 16.290000149 0.0 0.0 0.0 29.1751946751" Properties=species:S:1:pos:R:3:initial_magmoms:R:1 pbc="T T T"
Si       1.35453469      -1.38834784      -1.33024300       0.00000000
Si       1.36505151       1.32986674       1.37881970       0.00000000
Si      -1.34027605      -1.35345466       1.38570505       0.00000000
Si      -1.34881201       1.38440566      -1.36207314       0.00000000
Si      -2.69291621       2.68747535       0.06080111       0.00000000
Si       2.71080263       2.67776651       0.00986122       0.00000000
Si      -2.69707016      -2.70260876       0.03054643       0.00000000
Si       2.70073541      -0.05957253      -2.71156302       0.00000000
Si      -2.69565293       0.05201397      -2.75113625       0.00000000
Si       0.03415264       2.67972131       2.76895938       0.00000000
