10
Lattice="16.290000149 0.0 0.0 0.0 16.290000149 0.0 0.0 0.0 29.1751946751" Properties=species:S:1:pos:R:3:initial_magmoms:R:1 pbc="T T T"
Si       1.35550720       1.33584517       1.31790189       0.00000000
Si      -1.31466817       1.42412068      -1.30060100       0.00000000
Si       1.42706917      -1.33841899      -1.28989371       0.00000000
Si      -1.38082186      -1.25405308       1.42304930       0.00000000
Si      -2.66380598       0.04220739      -2.63233194       0.00000000
Si       0.05711274      -2.69485472      -2.61859042       0.00000000
Si      -0.02430468      -2.60407055       2.73246121       0.00000000
Si      -2.69402393      -2.68517846       0.10257998       0.00000000
Si       2.73079047       2.67074552      -0.02870839       0.00000000
Si      -2.61689078       2.78384700       0.11276213       0.00000000
