10
Lattice="16.290000149 0.0 0.0 0.0 16.290000149 0.0 0.0 0.0 29.1751946751" Properties=species:S:1:pos:R:3:initial_magmoms:R:1 pbc="T T T"
Si       1.30096828       1.48124971      -1.27617436       0.00000000
Si       1.37327959      -1.35202114       1.36045975       0.00000000
Si      -1.38512242       1.37073835       1.35150588       0.00000000
Si      -1.17297775      -1.46761498      -1.44987589       0.00000000
Si       2.60784983       0.05572809      -2.57994788       0.00000000
Si      -2.52918705      -0.05802498      -2.76133006       0.00000000
Si      -2.66126149      -2.66716172      -0.01447673       0.00000000
Si       0.01726740      -2.66595626       2.76019223       0.00000000
Si       2.71603172       0.01777239       2.72401499       0.00000000
Si      -0.02303406       2.73859338       2.71476645       0.00000000
