10
Lattice="16.290000149 0.0 0.0 0.0 16.290000149 0.0 0.0 0.0 29.1751946751" Properties=species:S:1:pos:R:3:initial_magmoms:R:1 pbc="T T T"
Si      -1.36904419      -1.32110272       1.36852086       0.00000000
Si       1.29666772      -1.36914193      -1.40472727       0.00000000
Si      -1.37455021       1.35428545      -1.34413039       0.00000000
Si       1.40805874       1.32178690       1.35769686       0.00000000
Si       0.05165559      -2.69330717       2.62535907       0.00000000
Si       0.04152321       2.69405651       2.69762603       0.00000000
Si      -0.01239669       2.70602966      -2.69383325       0.00000000
Si       2.67709862      -0.00720018      -2.72411710       0.00000000
Si      -2.72966646      -2.69680952       0.01546285       0.00000000
Si       2.61801479      -2.80991100      -0.12600767       0.00000000
