10
Lattice="16.290000149 0.0 0.0 0.0 16.290000149 0.0 0.0 0.0 29.1751946751" Properties=species:S:1:pos:R:3:initial_magmoms:R:1 pbc="T T T"
Si      -1.34622190       1.34519563      -1.36510736       0.00000000
Si      -1.35449722      -1.37270944       1.34506400       0.00000000
Si       1.34410420      -1.30306969      -1.42287424       0.00000000
Si       1.35837424       1.34789977       1.36650777       0.00000000
Si      -2.76811086      -0.11471418      -2.59004833       0.00000000
Si       0.11403000       2.78243205      -2.57956860       0.00000000
Si      -2.70045848       2.67343337       0.03655652       0.00000000
Si       2.69291621      -2.68747535      -0.06080111       0.00000000
Si       0.00837306      -2.71013474       2.71136754       0.00000000
Si      -2.71093295      -0.02225214       2.71060899       0.00000000
