10
Lattice="16.290000149 0.0 0.0 0.0 16.290000149 0.0 0.0 0.0 29.1751946751" Properties=species:S:1:pos:R:3:initial_magmoms:R:1 pbc="T T T"
Si       1.36869461      -1.35565381       1.34165050       0.00000000
Si       1.39815084       1.33511212      -1.33403578       0.00000000
Si      -1.35130438       1.36028017       1.35906809       0.00000000
Si      -1.35837424      -1.34789977      -1.36650777       0.00000000
Si       0.08096130       2.77064721      -2.60913766       0.00000000
Si       2.69959349      -2.70550838      -0.04848917       0.00000000
Si      -2.71019990      -0.00698841       2.69838458       0.00000000
Si       0.02195892      -2.70964604       2.69949324       0.00000000
Si       2.68260302       0.00931788       2.73768357       0.00000000
Si      -2.71176374       2.71427729       0.00813988       0.00000000
