10
Lattice="16.290000149 0.0 0.0 0.0 16.290000149 0.0 0.0 0.0 29.1751946751" Properties=species:S:1:pos:R:3:initial_magmoms:R:1 pbc="T T T"
Si       1.36977724      -1.35643573       1.32863837       0.00000000
Si       1.36547668       1.34472322      -1.34538493       0.00000000
Si      -1.34039008      -1.36010098      -1.36849168       0.00000000
Si      -1.32079321       1.36348930       1.38795154       0.00000000
Si      -0.01624113       2.69118947      -2.68187142       0.00000000
Si      -0.00195480      -2.68811066       2.68604347       0.00000000
Si       2.72215676      -0.00071676       2.67921648       0.00000000
Si      -2.69717442      -2.71311581      -0.00589339       0.00000000
Si       2.71601543      -0.01958058      -2.70141880       0.00000000
Si      -2.69251059      -0.00143352      -2.72846421       0.00000000
