10
Lattice="16.290000149 0.0 0.0 0.0 16.290000149 0.0 0.0 0.0 29.1751946751" Properties=species:S:1:pos:R:3:initial_magmoms:R:1 pbc="T T T"
Si      -1.46402467       1.21104748       1.33809113       0.00000000
Si       1.16987288       1.53321481      -1.31699746       0.00000000
Si      -0.22661345      -1.84627604      -1.44393873       0.00000000
Si       1.43943980      -1.18742698       1.44344276       0.00000000
H       -2.91958505      -1.24467004      -1.40758644       0.00000000
Si       2.08274819      -2.02919645      -2.03806240       0.00000000
Si      -2.61745442      -0.42650478       2.51974486       0.00000000
Si       2.52772584       0.18443538      -2.64481892       0.00000000
Si       3.15977784      -1.94658986       0.06316430       0.00000000
Si      -0.00599635       2.59473638       2.68729801       0.00000000
