10
Lattice="16.290000149 0.0 0.0 0.0 16.290000149 0.0 0.0 0.0 29.1751946751" Properties=species:S:1:pos:R:3:initial_magmoms:R:1 pbc="T T T"
Si      -0.39770406      -0.64483966      -2.22478365       0.00000000
Si      -1.99070318      -0.60387031       1.17310540       0.00000000
Si       0.79412122       2.03572874       1.01179575       0.00000000
Si       1.48370950      -1.87284503       0.35205707       0.00000000
H       -2.25650711       2.07190883      -0.24189154       0.00000000
Si       1.79942600       0.69589252       2.63580379       0.00000000
H        2.76260484       1.95098816      -0.03909476       0.00000000
H       -0.43184790       3.27274248      -1.34713544       0.00000000
Si      -2.15342399      -2.14127165      -1.88512603       0.00000000
Si      -1.06502392      -1.64840141       3.00845855       0.00000000
