10
Lattice="16.290000149 0.0 0.0 0.0 16.290000149 0.0 0.0 0.0 29.1751946751" Properties=species:S:1:pos:R:3:initial_magmoms:R:1 pbc="T T T"
Si       1.37147792       1.36844146       1.32385363       0.00000000
Si       1.38003668      -1.34782647      -1.33987082       0.00000000
Si      -1.32612004       1.38455227      -1.35810531       0.00000000
Si      -1.35065278      -1.35267111       1.37275126       0.00000000
Si      -2.68470605      -2.70545951      -0.01009462       0.00000000
Si      -2.69531084       0.03650589      -2.69599221       0.00000000
Si       0.00817758       2.72051147       2.67314804       0.00000000
Si       2.69731451       0.00879660       2.70136045       0.00000000
Si       2.70330923       0.03717378      -2.70115622       0.00000000
Si      -2.69136866       2.73147464      -0.00767308       0.00000000
