10
Lattice="16.290000149 0.0 0.0 0.0 16.290000149 0.0 0.0 0.0 29.1751946751" Properties=species:S:1:pos:R:3:initial_magmoms:R:1 pbc="T T T"
Si      -1.34574461      -1.32954094       1.38165261       0.00000000
Si       1.36145305       1.36580248       1.36508110       0.00000000
Si      -1.38335984       1.34188876      -1.37265498       0.00000000
Si       1.38675142      -1.37057545      -1.34919521       0.00000000
Si       2.68607441       0.11468160      -2.62302301       0.00000000
Si      -2.67520898      -2.69084738       0.00368191       0.00000000
Si      -2.60269161      -0.14895576      -2.76921904       0.00000000
Si      -2.70239699       0.05693355       2.71166221       0.00000000
Si      -0.03846069       2.80438869      -2.60799603       0.00000000
Si       0.02129103      -2.67998195       2.74576801       0.00000000
