10
Lattice="16.290000149 0.0 0.0 0.0 16.290000149 0.0 0.0 0.0 29.1751946751" Properties=species:S:1:pos:R:3:initial_magmoms:R:1 pbc="T T T"
Si       1.03228102       1.10749195      -0.21009058       0.00000000
H       -0.52496154       1.53940501       1.81484298       0.00000000
Si      -2.21780207      -0.79350220      -1.12079428       0.00000000
Si      -0.96923872       0.25518285       2.48359680       0.00000000
Si       1.03711915      -1.11092914       2.40543645       0.00000000
Si      -0.54972235      -2.48591918      -1.37721506       0.00000000
Si      -0.17047485      -2.72049518       0.98909745       0.00000000
Si       2.50929045       0.01865205      -1.63550306       0.00000000
Si       2.19684010       0.94354939       1.80915382       0.00000000
Si      -0.23003109       2.74885608      -1.36504901       0.00000000
