10
Lattice="16.290000149 0.0 0.0 0.0 16.290000149 0.0 0.0 0.0 29.1751946751" Properties=species:S:1:pos:R:3:initial_magmoms:R:1 pbc="T T T"
Si      -1.33991767       1.15233832       1.55682340       0.00000000
Si      -1.30781008      -1.44533026      -1.37085487       0.00000000
Si       1.42589629      -1.36792018       1.33356022       0.00000000
Si       0.83686618       1.99622549      -1.09242257       0.00000000
H        1.91226683       0.28385325      -1.88287954       0.00000000
Si      -0.90828154       3.53621694      -0.63331470       0.00000000
Si      -2.74517454       2.51748920       0.30343078       0.00000000
Si      -2.70356987      -0.01778868      -2.59542532       0.00000000
Si       0.08162919       2.61301376       2.78068780       0.00000000
Si      -2.63472833      -2.82717840       0.00576794       0.00000000
