10
Lattice="16.290000149 0.0 0.0 0.0 16.290000149 0.0 0.0 0.0 29.1751946751" Properties=species:S:1:pos:R:3:initial_magmoms:R:1 pbc="T T T"
Si      -2.31668237      -0.06214635       0.33790710       0.00000000
H       -0.87656491       1.53925840      -1.54777325       0.00000000
Si       0.96770746      -0.41090222      -2.15712637       0.00000000
Si       1.02680758       2.14793426       0.40623541       0.00000000
Si       0.05864400      -2.07109433       1.27661899       0.00000000
H       -2.93905812       1.25804413      -0.06847418       0.00000000
Si       2.85304692       1.24734160       1.53409009       0.00000000
Si       2.88660432      -1.47664942      -1.38838916       0.00000000
Si       3.53017335      -0.80128393       0.75671702       0.00000000
Si      -0.97456555      -1.39738716       3.35246327       0.00000000
