10
Lattice="16.290000149 0.0 0.0 0.0 16.290000149 0.0 0.0 0.0 29.1751946751" Properties=species:S:1:pos:R:3:initial_magmoms:R:1 pbc="T T T"
Si       0.43386786      -0.24421968       2.28185529       0.00000000
Si      -1.71543476       1.63644454       0.09490691       0.00000000
Si      -0.03715749      -2.29977335      -0.64760180       0.00000000
Si       1.86958703       0.89713918      -1.28187053       0.00000000
H       -0.75955384       0.24061959      -2.40788717       0.00000000
Si       2.16784064      -2.67385691       0.14476732       0.00000000
Si      -0.32573484       3.38077776      -0.82221534       0.00000000
Si       2.06869970      -1.97853455       2.36907832       0.00000000
Si      -0.59163652      -0.57518362      -3.67333206       0.00000000
Si       3.46227663       1.71629813       0.27573476       0.00000000
