10
Lattice="16.290000149 0.0 0.0 0.0 16.290000149 0.0 0.0 0.0 29.1751946751" Properties=species:S:1:pos:R:3:initial_magmoms:R:1 pbc="T T T"
Si       1.66807973      -1.69241699      -0.25642079       0.00000000
Si      -1.86828383      -0.83070856      -1.25322049       0.00000000
Si      -0.62837047       0.33694236       2.33039785       0.00000000
Si       0.68976748       1.86491180      -1.41826456       0.00000000
H        2.21780207       0.79350220       1.12079428       0.00000000
H       -1.07012269       2.50536944       0.11106997       0.00000000
H       -2.61542468      -0.27816804       1.25041967       0.00000000
H        0.61377463      -1.60953346       2.55665148       0.00000000
H       -0.49730112       2.37368108      -2.21778160       0.00000000
H       -3.26573778       0.14509503       1.20324338       0.00000000
