10
Lattice="16.290000149 0.0 0.0 0.0 16.290000149 0.0 0.0 0.0 29.1751946751" Properties=species:S:1:pos:R:3:initial_magmoms:R:1 pbc="T T T"
Si       1.38403099      -1.33951042      -1.33911226       0.00000000
Si      -1.29531565       1.30535029      -1.46018932       0.00000000
Si       1.38899944       1.35469270       1.33219774       0.00000000
Si      -1.35006634      -1.38991168       1.34544328       0.00000000
Si      -2.78008401       0.05181849       2.46877580       0.00000000
Si      -2.65957058       2.67292838      -0.19786617       0.00000000
Si       2.71192664      -0.01718595       2.67017217       0.00000000
Si       0.01922220      -2.68092677      -2.70935445       0.00000000
Si      -2.71085150      -2.69837336      -0.04274166       0.00000000
Si       2.72460026      -2.70348842       0.03477683       0.00000000
