10
Lattice="16.290000149 0.0 0.0 0.0 16.290000149 0.0 0.0 0.0 29.1751946751" Properties=species:S:1:pos:R:3:initial_magmoms:R:1 pbc="T T T"
Si      -1.36791692       1.33838641      -1.36466973       0.00000000
Si      -1.33276148      -1.39958794       1.34097947       0.00000000
Si       1.29870397      -1.35426916      -1.42150301       0.00000000
Si       1.35562123       1.38316762       1.35145337       0.00000000
Si       2.77224852       0.00674406       2.60499478       0.00000000
Si      -2.73608472      -0.08009793       2.65383406       0.00000000
Si       2.60755661      -2.78264154      -0.12513241       0.00000000
Si      -0.00907353       2.69304653      -2.71606475       0.00000000
Si      -2.71199739       2.69772176       0.00271329       0.00000000
Si       0.03357369      -2.64214028       2.78874016       0.00000000
