10
Lattice="16.290000149 0.0 0.0 0.0 16.290000149 0.0 0.0 0.0 29.1751946751" Properties=species:S:1:pos:R:3:initial_magmoms:R:1 pbc="T T T"
Si       1.39046554       1.37914399       1.30401450       0.00000000
Si      -1.34197021       1.33946155      -1.39997172       0.00000000
Si      -1.40392108      -1.27936123       1.39588719       0.00000000
Si       1.33568227      -1.39247410      -1.35609222       0.00000000
Si      -2.62974359      -2.71575479      -0.02897097       0.00000000
Si       0.01299942       2.72912888       2.63778770       0.00000000
Si       2.59599071      -2.79072138       0.06826996       0.00000000
Si      -2.70852203       2.72271062      -0.07979416       0.00000000
Si       2.72561024       0.04913064       2.70973373       0.00000000
Si       2.70617627      -0.03306870      -2.72989379       0.00000000
