10
Lattice="16.290000149 0.0 0.0 0.0 16.290000149 0.0 0.0 0.0 29.1751946751" Properties=species:S:1:pos:R:3:initial_magmoms:R:1 pbc="T T T"
Si      -1.34428339       1.35213517       1.34424739       0.00000000
Si       1.39575979      -1.42754158       1.22457045       0.00000000
Si       1.39776346       1.22846149      -1.42751310       0.00000000
Si      -1.50529375      -1.28221849      -1.28610093       0.00000000
H        0.51502464       2.08114526      -2.31426397       0.00000000
Si       2.70356987       0.01778868       2.59542532       0.00000000
Si      -2.55709019       2.76754071      -0.10640194       0.00000000
Si      -2.66691737      -0.05020578       2.68702084       0.00000000
Si       2.42763356      -0.25723539      -2.90115218       0.00000000
Si       0.06884154      -2.80938972       2.60119325       0.00000000
