10
Lattice="16.290000149 0.0 0.0 0.0 16.290000149 0.0 0.0 0.0 29.1751946751" Properties=species:S:1:pos:R:3:initial_magmoms:R:1 pbc="T T T"
Si      -1.30381903       1.38323278      -1.37102992       0.00000000
Si       1.38102386       1.36142047       1.33117661       0.00000000
Si       1.39963355      -1.33764848      -1.34328431       0.00000000
Si      -1.38885283      -1.34208261       1.37105910       0.00000000
Si       0.07498287      -2.64883613       2.63425750       0.00000000
Si      -2.67610493      -0.00228060      -2.67863297       0.00000000
Si       0.02925684      -2.70977636      -2.67236031       0.00000000
Si      -2.62822862       2.75462274       0.00140041       0.00000000
Si      -2.65667096       0.07991874       2.76099455       0.00000000
Si       2.72670168       0.02567304       2.70809992       0.00000000
