10
Lattice="16.290000149 0.0 0.0 0.0 16.290000149 0.0 0.0 0.0 29.1751946751" Properties=species:S:1:pos:R:3:initial_magmoms:R:1 pbc="T T T"
Si      -1.49379301       1.79556527      -0.11486274       0.00000000
Si       1.11369844      -1.11384505      -1.75999362       0.00000000
Si      -1.65418436      -1.52622640       0.73801572       0.00000000
Si       1.86828383       0.83070856       1.25322049       0.00000000
H       -0.74714086       0.55254052       2.50364016       0.00000000
H       -1.39745395       0.97580359       2.45646387       0.00000000
Si       2.44946216      -2.53855217      -0.40010862       0.00000000
H        1.37098270       3.20438964      -0.96456111       0.00000000
H        0.79816114       3.33607800       1.36429045       0.00000000
Si       2.55805130       2.69562035      -0.16504408       0.00000000
