10
Lattice="16.290000149 0.0 0.0 0.0 16.290000149 0.0 0.0 0.0 29.1751946751" Properties=species:S:1:pos:R:3:initial_magmoms:R:1 pbc="T T T"
Si       1.21280680      -1.41540553       1.45064932       0.00000000
Si      -1.49024179      -1.25069734      -1.37625228       0.00000000
Si      -1.48335112       1.29416525       1.34325514       0.00000000
Si       1.62637732       1.48458591      -0.93150562       0.00000000
Si       2.55709019      -2.76754071       0.10640194       0.00000000
H        1.17590995      -1.11492019      -3.44658245       0.00000000
Si       0.90528418       3.67458420      -0.51645930       0.00000000
Si      -2.80088634      -2.61674417       0.11010718       0.00000000
H        3.07211484      -0.68639545      -2.20786203       0.00000000
Si      -0.18899658       2.58045820       2.84998764       0.00000000
