10
Lattice="16.290000149 0.0 0.0 0.0 16.290000149 0.0 0.0 0.0 29.1751946751" Properties=species:S:1:pos:R:3:initial_magmoms:R:1 pbc="T T T"
Si       1.24537051      -1.37472940       1.41041935       0.00000000
Si      -1.29218797       1.44831133       1.32357355       0.00000000
Si       1.90731467       0.78934825      -1.12294741       0.00000000
Si      -1.83831023      -0.88283656      -1.18038753       0.00000000
H        0.69902020      -1.83226664      -1.91828072       0.00000000
Si       1.25952652       1.21811734      -3.25418371       0.00000000
Si       2.66385485       0.05646114       2.64305674       0.00000000
Si      -2.72173322       0.05605389       2.60156961       0.00000000
Si       2.74390392      -2.60912534       0.13028767       0.00000000
Si      -3.47314206       0.85147831      -1.26761057       0.00000000
