10
Lattice="16.290000149 0.0 0.0 0.0 16.290000149 0.0 0.0 0.0 29.1751946751" Properties=species:S:1:pos:R:3:initial_magmoms:R:1 pbc="T T T"
Si       1.41192925       1.39002571      -1.25732544       0.00000000
Si       1.36419955      -1.34925184       1.37167178       0.00000000
Si      -1.28286113       1.34376211       1.45639654       0.00000000
Si      -1.38911999      -1.28645389      -1.43534956       0.00000000
Si      -2.69331369      -2.64018548      -0.00110866       0.00000000
Si      -2.59736559       2.78077959       0.18103208       0.00000000
Si       0.13497731       2.76461339      -2.64505232       0.00000000
Si       2.74363676       0.07481997      -2.67459513       0.00000000
Si       2.71123595       2.71641617       0.17012056       0.00000000
Si       2.71710035      -2.71780733       0.01374152       0.00000000
