10
Lattice="16.290000149 0.0 0.0 0.0 16.290000149 0.0 0.0 0.0 29.1751946751" Properties=species:S:1:pos:R:3:initial_magmoms:R:1 pbc="T T T"
Si      -1.35795070      -1.36627489      -1.32983455       0.00000000
Si      -1.34946361       1.34667802       1.36557416       0.00000000
Si       1.33493293      -1.37645614       1.35262038       0.00000000
Si       1.33973848       1.35571897      -1.38112454       0.00000000
Si      -2.70345584       2.67789683      -0.02121037       0.00000000
Si       2.67687708      -0.01488906       2.70591178       0.00000000
Si      -2.68486895       0.00231318      -2.70524075       0.00000000
Si       0.00990432      -2.71208954      -2.67912895       0.00000000
Si       2.69149084       2.70811478      -0.02077274       0.00000000
Si      -2.70541064      -0.02669931       2.70777899       0.00000000
