10
Lattice="16.290000149 0.0 0.0 0.0 16.290000149 0.0 0.0 0.0 29.1751946751" Properties=species:S:1:pos:R:3:initial_magmoms:R:1 pbc="T T T"
H       -0.64666414      -0.82712476       1.07641881       0.00000000
Si       1.24033690      -1.36436896      -1.41671828       0.00000000
Si      -1.57635073       1.08968698      -1.32207395       0.00000000
Si       1.27439929       1.46559502       1.29505772       0.00000000
H       -2.08282313      -1.73543888       0.53078432       0.00000000
Si      -3.17936820       1.01678923       0.46759085       0.00000000
H       -1.26954487      -2.48549564       2.18335487       0.00000000
Si       2.51255333      -0.01804932       2.65943570       0.00000000
Si      -0.28416276       2.67586058      -2.60937106       0.00000000
Si       2.56326410      -2.73624761      -0.07874385       0.00000000
