10
Lattice="16.290000149 0.0 0.0 0.0 16.290000149 0.0 0.0 0.0 29.1751946751" Properties=species:S:1:pos:R:3:initial_magmoms:R:1 pbc="T T T"
Si      -1.35884339      -1.35466012       1.35139502       0.00000000
Si      -1.38712772       1.35045730      -1.33105991       0.00000000
Si       1.31989726      -1.36044307      -1.39089823       0.00000000
Si       1.36959805       1.36143676       1.35168677       0.00000000
Si      -0.01114236       2.69933447      -2.68085029       0.00000000
Si       2.68475492      -2.71753040      -0.06080111       0.00000000
Si       0.00907353      -2.69304653       2.71606475       0.00000000
Si      -2.70292386       0.00467523       2.71877804       0.00000000
Si       2.68900661      -0.01637145      -2.73298636       0.00000000
Si      -2.70064681      -0.01448181      -2.72621772       0.00000000
