10
Lattice="16.290000149 0.0 0.0 0.0 16.290000149 0.0 0.0 0.0 29.1751946751" Properties=species:S:1:pos:R:3:initial_magmoms:R:1 pbc="T T T"
Si       1.29702610       1.29876913      -1.49744604       0.00000000
Si       1.26231211      -1.64136412       1.15495843       0.00000000
Si      -0.99287551       1.77231944       1.26340263       0.00000000
Si      -1.29800350      -1.67744648      -1.17400983       0.00000000
H        0.23003109      -2.74885608       1.36504901       0.00000000
H       -3.05789367      -1.03698883       0.35532470       0.00000000
H       -2.48507210      -1.16867719      -1.97352687       0.00000000
H       -0.29493045      -1.20945106       3.17989199       0.00000000
H       -1.86219137       0.48969369      -3.08046293       0.00000000
Si      -2.53117280       2.75677302      -0.24046195       0.00000000
