10
Lattice="16.290000149 0.0 0.0 0.0 16.290000149 0.0 0.0 0.0 29.1751946751" Properties=species:S:1:pos:R:3:initial_magmoms:R:1 pbc="T T T"
Si       1.42658047       1.38984652       1.17783178       0.00000000
Si      -1.31794246       1.44347320      -1.27504353       0.00000000
Si       1.43568658      -1.31896873      -1.28391279       0.00000000
Si      -1.38513871      -1.33408585       1.34197143       0.00000000
Si       0.05965398      -2.65981493      -2.61611053       0.00000000
Si      -2.66548385       0.08174322      -2.62430876       0.00000000
Si       0.00477297      -2.61886187       2.70471560       0.00000000
Si       2.72073953       0.09513360       2.60499478       0.00000000
Si      -2.56891673       0.11297115       2.75755188       0.00000000
Si       0.07138278       2.80227099      -2.58956110       0.00000000
