10
Lattice="16.290000149 0.0 0.0 0.0 16.290000149 0.0 0.0 0.0 29.1751946751" Properties=species:S:1:pos:R:3:initial_magmoms:R:1 pbc="T T T"
H       -0.09539424      -1.11286765      -1.00584401       0.00000000
Si       2.21254203       0.22195125       0.65261993       0.00000000
Si      -1.62966790      -0.65220274       1.56697053       0.00000000
Si      -0.45033705       2.13185603      -0.89751651       0.00000000
H        2.09207911      -1.00361062      -2.05708463       0.00000000
H       -1.88388965       2.44931555      -0.45075676       0.00000000
H        0.95851387       0.76505986      -3.02202501       0.00000000
Si      -3.15858216      -1.37821546      -0.05257370       0.00000000
H       -1.34829073      -3.25251030       0.69442798       0.00000000
Si       3.03313287      -2.02992950       0.43018825       0.00000000
