10
Lattice="16.290000149 0.0 0.0 0.0 16.290000149 0.0 0.0 0.0 29.1751946751" Properties=species:S:1:pos:R:3:initial_magmoms:R:1 pbc="T T T"
Si      -1.35759232      -1.34469064      -1.36335685       0.00000000
Si      -1.36273996       1.35063649       1.35235780       0.00000000
Si       1.32211270      -1.36673101       1.39092741       0.00000000
Si       1.35816247       1.37681452      -1.35521697       0.00000000
Si       2.69439860       0.01878237       2.69853046       0.00000000
Si       0.01070253       2.71639010       2.68239657       0.00000000
Si       2.69607647      -2.70554096       0.02707458       0.00000000
Si       0.00731421      -2.70611111      -2.70804157       0.00000000
Si      -2.72412785      -2.69202189      -0.01485017       0.00000000
Si      -2.71854038       0.02274084      -2.69815118       0.00000000
