10
Lattice="16.290000149 0.0 0.0 0.0 16.290000149 0.0 0.0 0.0 29.1751946751" Properties=species:S:1:pos:R:3:initial_magmoms:R:1 pbc="T T T"
Si       1.43355259      -0.31745952      -0.44675976       0.00000000
Si      -2.00692802       0.08019567       1.05640462       0.00000000
Si      -1.24214509       1.94647583      -0.22625363       0.00000000
Si       0.63478873       2.65821851       1.04773959       0.00000000
Si       1.05430510      -0.08288352      -2.81307227       0.00000000
Si      -0.61377463       1.60953346      -2.55665148       0.00000000
Si       2.64114659       1.29210652       0.96957924       0.00000000
Si      -0.97617826      -1.24791175       2.67594886       0.00000000
Si       1.88388965      -2.44931555       0.45075676       0.00000000
H        1.60402744       2.40303566      -1.43585721       0.00000000
