10
Lattice="16.290000149 0.0 0.0 0.0 16.290000149 0.0 0.0 0.0 29.1751946751" Properties=species:S:1:pos:R:3:initial_magmoms:R:1 pbc="T T T"
Si      -1.32658757       1.41209866      -1.31005377       0.00000000
Si       1.33422920       1.37764531       1.34386782       0.00000000
Si       1.35193481      -1.32501232      -1.40662366       0.00000000
Si      -1.38580172      -1.33086043       1.36834581       0.00000000
Si      -2.71646667       0.06675642      -2.58335846       0.00000000
Si       2.64344837      -2.67963986       0.02511984       0.00000000
Si       2.67524645       0.01886382       2.70783734       0.00000000
Si       2.66604260       2.73544941      -0.03906559       0.00000000
Si      -0.05596755       2.73694809       2.66635022       0.00000000
Si      -2.75258160      -2.68058468       0.03089653       0.00000000
