10
Lattice="16.290000149 0.0 0.0 0.0 16.290000149 0.0 0.0 0.0 29.1751946751" Properties=species:S:1:pos:R:3:initial_magmoms:R:1 pbc="T T T"
Si       1.35928648       1.35408997       1.35375821       0.00000000
Si      -1.33181340      -1.35780409       1.38293340       0.00000000
Si       1.38015397      -1.35824392      -1.33540701       0.00000000
Si      -1.36703564       1.35044101      -1.36411540       0.00000000
Si      -2.66604260      -2.73544941       0.03906559       0.00000000
Si      -0.01078398       2.70661610       2.70486147       0.00000000
Si       2.71524980       2.69811272      -0.02112284       0.00000000
Si       2.70589934      -0.00702099       2.71971165       0.00000000
Si      -0.02129103       2.67998195      -2.74576801       0.00000000
Si      -2.72201015       0.00149868       2.70541580       0.00000000
