10
Lattice="16.290000149 0.0 0.0 0.0 16.290000149 0.0 0.0 0.0 29.1751946751" Properties=species:S:1:pos:R:3:initial_magmoms:R:1 pbc="T T T"
Si       1.35291709      -1.35661492      -1.32779228       0.00000000
Si      -1.17254932      -1.53469720       1.31728921       0.00000000
Si       1.54564408       1.30852684       1.19034794       0.00000000
Si      -1.02794136       1.55589049      -1.47769444       0.00000000
H        2.70966233      -0.78123583      -1.05351628       0.00000000
Si       0.13678713       2.49949100       2.65225860       0.00000000
Si      -1.40111594      -3.39167577      -0.11754686       0.00000000
Si       2.33919515       2.81100405      -0.51024498       0.00000000
Si       0.90880282      -3.56755890      -0.71744721       0.00000000
Si      -2.63300159      -0.32177637       2.65745178       0.00000000
