10
Lattice="16.290000149 0.0 0.0 0.0 16.290000149 0.0 0.0 0.0 29.1751946751" Properties=species:S:1:pos:R:3:initial_magmoms:R:1 pbc="T T T"
Si       0.17915742      -1.38684590      -0.61221229       0.00000000
Si      -0.69902020       1.83226664       1.91828072       0.00000000
Si      -0.50459904       1.28619325      -2.39747162       0.00000000
Si      -2.53733042       0.94943008       0.73789319       0.00000000
Si      -2.43818948       0.25410771      -1.48641782       0.00000000
Si       1.20829447       2.62161488       0.79533331       0.00000000
Si       2.04488372      -0.77685870       2.04856839       0.00000000
Si       1.00890487      -2.63401157       1.09855403       0.00000000
Si       2.91187011       0.95249260       0.66917043       0.00000000
Si       2.07800129      -1.36845124      -1.94569373       0.00000000
