10
Lattice="16.290000149 0.0 0.0 0.0 16.290000149 0.0 0.0 0.0 29.1751946751" Properties=species:S:1:pos:R:3:initial_magmoms:R:1 pbc="T T T"
Si       2.26957821      -0.48954708       0.12708715       0.00000000
Si      -0.27919431       0.73190645       2.21127553       0.00000000
Si      -0.58702645       1.73113669      -1.52892608       0.00000000
Si      -1.52334307      -1.85948723      -0.42356548       0.00000000
H       -1.36886500       1.80447590       2.25912285       0.00000000
Si       2.53229681      -1.31820310      -2.02747180       0.00000000
Si      -1.09760392      -1.20681208       3.22998580       0.00000000
Si      -2.66214440      -1.98804791       1.64025862       0.00000000
Si      -2.57989619       2.60586245      -0.54382563       0.00000000
Si      -1.77771143       0.56326096      -3.21073017       0.00000000
