10
Lattice="16.290000149 0.0 0.0 0.0 16.290000149 0.0 0.0 0.0 29.1751946751" Properties=species:S:1:pos:R:3:initial_magmoms:R:1 pbc="T T T"
Si       0.97769323      -1.45813420      -1.50409799       0.00000000
Si      -1.69266134       0.92429461      -1.31378819       0.00000000
Si      -1.26296371      -1.48335112       1.32893012       0.00000000
Si       1.50529375       1.28221849       1.28610093       0.00000000
H       -1.15934302       1.18534186      -2.69960994       0.00000000
Si      -0.91693153      -2.95736808      -1.82067802       0.00000000
Si      -2.64008774      -2.51102207      -0.30374295       0.00000000
Si      -2.57489516      -0.06243957       2.62961777       0.00000000
H        0.12411351       2.93483901      -2.26688345       0.00000000
Si       0.16101036       2.63435366       2.63034832       0.00000000
