10
Lattice="16.290000149 0.0 0.0 0.0 16.290000149 0.0 0.0 0.0 29.1751946751" Properties=species:S:1:pos:R:3:initial_magmoms:R:1 pbc="T T T"
Si      -0.71350201      -0.06343326      -1.33146836       0.00000000
H       -2.10621557       0.78302773       0.29140184       0.00000000
H        1.13619493       1.63789436      -1.14159619       0.00000000
H        1.78650803       1.21463128      -1.09441990       0.00000000
Si      -1.51130476       0.85926493       1.69974684       0.00000000
Si       0.25857117      -2.68172498       1.43676164       0.00000000
Si       2.24521814      -2.08147106       0.25986346       0.00000000
Si       0.87946453      -0.86413564      -2.86004433       0.00000000
Si       0.38331999       2.35849880       2.01632688       0.00000000
Si      -1.03913911      -1.17802765       2.75702672       0.00000000
