10
Lattice="16.290000149 0.0 0.0 0.0 16.290000149 0.0 0.0 0.0 29.1751946751" Properties=species:S:1:pos:R:3:initial_magmoms:R:1 pbc="T T T"
H       -0.65031310       0.42326307      -0.04717629       0.00000000
Si       1.98705422       0.61511041       1.07997818       0.00000000
H       -1.78650803      -1.21463128       1.09441990       0.00000000
Si       0.74714086      -0.55254052      -2.50364016       0.00000000
Si       0.21097179       2.16943706       1.70882033       0.00000000
Si      -2.50001003      -1.27806454      -0.23704846       0.00000000
Si      -0.90704350      -2.07876692      -1.76562443       0.00000000
Si       2.61542468       0.27816804      -1.25041967       0.00000000
Si       1.22227129      -1.25116975       2.36263644       0.00000000
Si      -0.74665216       1.24302475      -2.61850290       0.00000000
