10
Lattice="16.290000149 0.0 0.0 0.0 16.290000149 0.0 0.0 0.0 29.1751946751" Properties=species:S:1:pos:R:3:initial_magmoms:R:1 pbc="T T T"
Si       0.09914094      -0.69532237      -2.22431101       0.00000000
Si      -0.99513982      -1.78944837       1.14213593       0.00000000
Si       1.83831023       0.88283656       1.18038753       0.00000000
Si      -1.63483183       1.73431487      -0.08722304       0.00000000
H        2.53733042      -0.94943008      -0.73789319       0.00000000
Si       0.54612226       2.33114789       2.50396108       0.00000000
Si      -2.31195827      -0.46692027       2.54183049       0.00000000
Si      -2.10585719      -0.32123880      -3.01668012       0.00000000
Si      -2.06869970       1.97853455      -2.36907832       0.00000000
Si       2.03273138       0.33676317      -3.13536481       0.00000000
