10
Lattice="16.290000149 0.0 0.0 0.0 16.290000149 0.0 0.0 0.0 29.1751946751" Properties=species:S:1:pos:R:3:initial_magmoms:R:1 pbc="T T T"
Si      -1.02987010       1.48569688       1.47363908       0.00000000
Si       0.91947277       1.83730025      -1.16724119       0.00000000
Si      -1.34107426      -1.45754776      -1.29097319       0.00000000
Si       1.50066739      -1.31202919       1.29613720       0.00000000
H       -1.91260892       2.33838065       0.58688822       0.00000000
H        2.75621916      -1.01590957      -1.31457592       0.00000000
Si       2.31194198      -2.30013173      -0.64582211       0.00000000
Si       0.87045616       2.78596470       2.10388164       0.00000000
Si       0.43500816      -3.01187442      -1.91981534       0.00000000
Si       2.48401325       2.61853607       0.42248599       0.00000000
