10
Lattice="16.290000149 0.0 0.0 0.0 16.290000149 0.0 0.0 0.0 29.1751946751" Properties=species:S:1:pos:R:3:initial_magmoms:R:1 pbc="T T T"
Si       1.33191928      -1.41934934      -1.28455465       0.00000000
Si      -1.34991973      -1.37388395       1.33584464       0.00000000
Si       1.38500839       1.35066907       1.32394116       0.00000000
Si      -1.29798721       1.35089713      -1.41873137       0.00000000
Si       2.66911652      -0.07988616      -2.60988163       0.00000000
Si       0.01228266       2.69544116       2.66144878       0.00000000
Si      -2.67778280       2.69838965      -0.06885346       0.00000000
Si      -2.72652248      -0.05491359      -2.65885803       0.00000000
Si      -2.71221986      -0.01785384       2.67396494       0.00000000
Si       0.03106503      -2.73499328       2.65718921       0.00000000
