10
Lattice="16.290000149 0.0 0.0 0.0 16.290000149 0.0 0.0 0.0 29.1751946751" Properties=species:S:1:pos:R:3:initial_magmoms:R:1 pbc="T T T"
Si       1.36230013      -1.35603011      -1.33812030       0.00000000
Si       1.37132479       1.34899120       1.34132958       0.00000000
Si      -1.34333857      -1.35510321       1.36691622       0.00000000
Si      -1.32742324       1.37213929      -1.37138003       0.00000000
Si       0.00133578       2.70464501       2.67583215       0.00000000
Si       2.71221986       0.01785384      -2.67396494       0.00000000
Si       0.00788436      -2.72841213      -2.67565710       0.00000000
Si       0.04474863      -2.70462872       2.70045602       0.00000000
Si      -2.68716584       2.72650619      -0.01689244       0.00000000
Si      -2.69900867      -2.71823087       0.01709666       0.00000000
