10
Lattice="16.290000149 0.0 0.0 0.0 16.290000149 0.0 0.0 0.0 29.1751946751" Properties=species:S:1:pos:R:3:initial_magmoms:R:1 pbc="T T T"
Si      -0.09914094       0.69532237       2.22431101       0.00000000
Si       0.72109315      -2.18999830      -0.41504632       0.00000000
Si      -2.20499813       0.37408356      -0.79236911       0.00000000
Si       1.93359044       1.03208554      -0.91105380       0.00000000
H        2.43818948      -0.25410771       1.48641782       0.00000000
Si       2.61734690      -1.64095362       0.87420553       0.00000000
Si      -2.16784064       2.67385691      -0.14476732       0.00000000
Si       1.47955555      -1.85229356      -2.66918021       0.00000000
Si       0.99945667       2.06729876      -2.74690293       0.00000000
Si       0.26021646       0.00447975      -3.62096259       0.00000000
