10
Lattice="16.290000149 0.0 0.0 0.0 16.290000149 0.0 0.0 0.0 29.1751946751" Properties=species:S:1:pos:R:3:initial_magmoms:R:1 pbc="T T T"
Si      -1.32194980      -1.33891958      -1.33675199       0.00000000
Si       1.31450446      -1.43701748       1.27536446       0.00000000
Si      -1.44432028       1.32959470       1.28335846       0.00000000
Si       1.29989086       1.28970049      -1.47257419       0.00000000
Si       2.62706226      -0.05307445       2.63959656       0.00000000
Si      -0.07754040       2.67931895       2.62080774       0.00000000
Si      -2.73945675       0.00610875      -2.58678654       0.00000000
Si       2.66019612       2.68516706      -0.15416173       0.00000000
Si      -0.14784804       2.67858590      -2.69546123       0.00000000
Si      -0.08526186      -2.77129881       2.60931271       0.00000000
