10
Lattice="16.290000149 0.0 0.0 0.0 16.290000149 0.0 0.0 0.0 29.1751946751" Properties=species:S:1:pos:R:3:initial_magmoms:R:1 pbc="T T T"
Si       2.28677393       0.05895351      -0.48591287       0.00000000
Si      -0.73291969       2.15314706      -0.68304966       0.00000000
Si      -0.17844066       0.42855732       2.34268061       0.00000000
Si      -0.96567121      -2.05397191      -0.85620444       0.00000000
H       -2.34963704       0.24426855       0.92928830       0.00000000
H       -0.90083701       2.96895027       0.58239524       0.00000000
Si      -3.58982733       0.20751831       0.04414207       0.00000000
Si       3.02601414       2.12177252       0.38814679       0.00000000
Si      -3.02961423      -1.32567370      -1.70706982       0.00000000
Si       2.02655747       0.05447376       3.13504972       0.00000000
