10
Lattice="16.290000149 0.0 0.0 0.0 16.290000149 0.0 0.0 0.0 29.1751946751" Properties=species:S:1:pos:R:3:initial_magmoms:R:1 pbc="T T T"
Si      -1.37412667       1.35593074       1.32440796       0.00000000
Si      -1.37344249      -1.36575361      -1.33003877       0.00000000
Si       1.35594703       1.37337733      -1.34220483       0.00000000
Si       1.35928648      -1.32621778       1.38856422       0.00000000
Si      -0.01334151       2.66439242       2.71259290       0.00000000
Si       2.68369607      -2.69760773       0.01613388       0.00000000
Si      -0.01070253      -2.71639010      -2.68239657       0.00000000
Si       2.70541064       0.02669931      -2.70777899       0.00000000
Si      -0.00430056      -2.67090842       2.74243912       0.00000000
Si      -2.72184725       0.02663415       2.69605056       0.00000000
