10
Lattice="16.290000149 0.0 0.0 0.0 16.290000149 0.0 0.0 0.0 29.1751946751" Properties=species:S:1:pos:R:3:initial_magmoms:R:1 pbc="T T T"
Si       1.34776945       1.32984068      -1.34471973       0.00000000
Si      -1.35689185       1.39490294       1.28849330       0.00000000
Si       1.36995643      -1.36151170       1.31244613       0.00000000
Si      -1.29930670      -1.32639046      -1.42744600       0.00000000
Si      -2.68153928       0.01128897       2.65050809       0.00000000
Si      -0.01754433      -2.72050496       2.61672321       0.00000000
Si       0.03464883       2.73903972       2.61672321       0.00000000
Si       2.72437220       0.01087032       2.64998293       0.00000000
Si      -2.57625864       0.04819722      -2.81517288       0.00000000
Si      -2.64840542       2.74953048      -0.14325021       0.00000000
