10
Lattice="16.290000149 0.0 0.0 0.0 16.290000149 0.0 0.0 0.0 29.1751946751" Properties=species:S:1:pos:R:3:initial_magmoms:R:1 pbc="T T T"
H        0.65031310      -0.42326307       0.04717629       0.00000000
H       -1.13619493      -1.63789436       1.14159619       0.00000000
Si      -1.84969694      -1.70132762      -0.18987217       0.00000000
Si       0.86128489       1.74617399       1.75599662       0.00000000
Si      -0.09633906       0.81976168      -2.57132661       0.00000000
Si      -2.22384566       0.23930010      -1.56682465       0.00000000
Si       2.63736731       0.19184733       1.12715447       0.00000000
Si       1.39745395      -0.97580359      -2.45646387       0.00000000
Si      -0.25673040      -2.50202999      -1.71844814       0.00000000
Si      -0.37271520       3.06335082       0.24060783       0.00000000
