10
Lattice="16.290000149 0.0 0.0 0.0 16.290000149 0.0 0.0 0.0 29.1751946751" Properties=species:S:1:pos:R:3:initial_magmoms:R:1 pbc="T T T"
Si       1.31794246      -1.44347320       1.27504353       0.00000000
Si      -1.34754139      -1.36172998      -1.34926523       0.00000000
Si       1.38932524       1.35879778      -1.31451757       0.00000000
Si      -1.29213910       1.36632376       1.41353818       0.00000000
Si       2.74452294      -0.05362668       2.45287532       0.00000000
Si       0.02228472       2.70169652      -2.66918021       0.00000000
Si      -2.66269826       2.71723718       0.06322265       0.00000000
Si      -2.71239905      -0.00464265      -2.67936235       0.00000000
Si      -0.06719625      -2.77755906       2.61701496       0.00000000
Si       0.02831202      -2.72504009      -2.68230905       0.00000000
