10
Lattice="16.290000149 0.0 0.0 0.0 16.290000149 0.0 0.0 0.0 29.1751946751" Properties=species:S:1:pos:R:3:initial_magmoms:R:1 pbc="T T T"
Si      -1.41467248      -1.32639697       1.23947897       0.00000000
Si       1.36425493      -1.36757809      -1.26232315       0.00000000
Si       1.23188239       1.13582026       1.62470824       0.00000000
Si      -1.39432627       1.45282366      -1.19183588       0.00000000
Si      -0.37113507       1.06292251       3.41437303       0.00000000
Si       2.70184313       0.07654671      -2.52234146       0.00000000
Si      -2.49891860       0.09329283       2.73677914       0.00000000
Si      -0.05532084      -2.67792941      -2.57541113       0.00000000
Si       2.52407036       2.72199386       0.33741113       0.00000000
Si      -0.12051342      -2.62110989       2.66664197       0.00000000
