10
Lattice="16.290000149 0.0 0.0 0.0 16.290000149 0.0 0.0 0.0 29.1751946751" Properties=species:S:1:pos:R:3:initial_magmoms:R:1 pbc="T T T"
Si      -1.34359921      -1.37904625       1.31218356       0.00000000
Si       1.30469869      -1.34630335      -1.43133505       0.00000000
Si       1.22965066       1.43119380       1.42940949       0.00000000
Si      -1.40090743       1.33898588      -1.36119788       0.00000000
Si       0.20189826      -2.70176168       2.49891377       0.00000000
Si       2.64288962       2.71406063       0.04644691       0.00000000
Si      -2.70922250      -0.01197315       2.65721838       0.00000000
Si      -0.28320165       2.75279826       2.63627059       0.00000000
Si       2.66005928       0.00811242      -2.76513743       0.00000000
Si      -0.06519258       2.70329294      -2.72954369       0.00000000
