10
Lattice="16.290000149 0.0 0.0 0.0 16.290000149 0.0 0.0 0.0 29.1751946751" Properties=species:S:1:pos:R:3:initial_magmoms:R:1 pbc="T T T"
Si       1.32802109      -1.36060597       1.37476435       0.00000000
Si      -1.37043373      -1.36878355      -1.32490394       0.00000000
Si      -1.36606801       1.35148357       1.34859420       0.00000000
Si       1.36710080       1.36524862      -1.34456802       0.00000000
Si      -2.69539718       0.01479132      -2.68513904       0.00000000
Si       0.00935535      -2.71694885      -2.66600011       0.00000000
Si       2.68369119       0.00702099       2.71256372       0.00000000
Si      -0.02434541       2.71254566       2.70243993       0.00000000
Si       2.72651760       0.00993690      -2.69841376       0.00000000
Si       2.71185660      -2.71539967       0.03982414       0.00000000
