10
Lattice="16.290000149 0.0 0.0 0.0 16.290000149 0.0 0.0 0.0 29.1751946751" Properties=species:S:1:pos:R:3:initial_magmoms:R:1 pbc="T T T"
Si      -1.37861783       1.45239361      -1.15676729       0.00000000
Si       1.53169984      -1.26130213      -1.21307542       0.00000000
Si       0.84483199       1.65907950       1.39822120       0.00000000
Si      -0.91771345      -1.73063333       1.28149125       0.00000000
H        0.24477354       2.97250149       0.96117679       0.00000000
Si       2.56072286      -2.08997444       0.74183767       0.00000000
Si       0.12052971      -2.65628000      -2.51326797       0.00000000
Si      -2.60706762       0.09156283      -2.60298169       0.00000000
Si       0.09474264       1.07794515       3.55380129       0.00000000
Si       0.73327807      -3.38530638       1.37692331       0.00000000
