10
Lattice="16.290000149 0.0 0.0 0.0 16.290000149 0.0 0.0 0.0 29.1751946751" Properties=species:S:1:pos:R:3:initial_magmoms:R:1 pbc="T T T"
Si       1.03360051       1.10783404      -0.21178274       0.00000000
H       -0.51538302       1.53875341       1.82012369       0.00000000
Si      -2.20999916      -0.78033988      -1.12146531       0.00000000
Si      -0.96772375       0.25501995       2.48260484       0.00000000
Si       1.04174551      -1.11281878       2.40111852       0.00000000
Si      -0.54144703      -2.46584990      -1.37520198       0.00000000
Si      -0.17997192      -2.70135443       0.98644251       0.00000000
Si       2.19753568       0.94626982       1.80772424       0.00000000
Si       2.52072928       0.03088584      -1.63766203       0.00000000
Si      -0.22724550       2.75015928      -1.36627437       0.00000000
