10
Lattice="16.290000149 0.0 0.0 0.0 16.290000149 0.0 0.0 0.0 29.1751946751" Properties=species:S:1:pos:R:3:initial_magmoms:R:1 pbc="T T T"
H       -0.17886420       1.38726619       0.61104528       0.00000000
Si       0.83393398      -1.24379690       1.71408645       0.00000000
Si       1.89519491       0.01746451      -1.33905391       0.00000000
Si      -1.90021223      -0.54762745      -1.28700536       0.00000000
Si       0.64251019       1.12431300      -2.94395219       0.00000000
Si      -2.62892909       1.64225356      -0.88219954       0.00000000
Si      -0.69138019       2.67060869      -1.78718490       0.00000000
Si       1.87356179       0.60951805       2.66695123       0.00000000
Si       2.33240222      -2.27159817      -1.03496086       0.00000000
Si      -0.99787654      -2.26548942       2.65783398       0.00000000
