10
Lattice="16.290000149 0.0 0.0 0.0 16.290000149 0.0 0.0 0.0 29.1751946751" Properties=species:S:1:pos:R:3:initial_magmoms:R:1 pbc="T T T"
Si       0.65319643      -0.42230196       2.13177021       0.00000000
Si      -1.07266393      -1.75746296      -1.06728697       0.00000000
Si      -1.69971491       1.59855400      -0.01312884       0.00000000
Si       1.78614965       0.58868803      -1.44175060       0.00000000
Si      -0.30507912       3.03152016      -1.19192340       0.00000000
H        3.08317575       1.13942035      -0.52141908       0.00000000
H       -0.56014795      -3.04080546       1.33094321       0.00000000
Si      -1.99932059      -0.71130286      -2.90106466       0.00000000
Si      -1.25465581      -1.21220407       3.25393864       0.00000000
Si       0.76528792       1.92332774      -3.06190751       0.00000000
