10
Lattice="16.290000149 0.0 0.0 0.0 16.290000149 0.0 0.0 0.0 29.1751946751" Properties=species:S:1:pos:R:3:initial_magmoms:R:1 pbc="T T T"
H       -0.90091846       0.74246563       0.97777747       0.00000000
Si       1.15093738       1.63932788      -1.18226641       0.00000000
Si       1.40246150      -1.17069715       1.46013097       0.00000000
Si      -1.59146785      -1.12958119      -1.34077525       0.00000000
Si      -1.98112466       2.45588042       1.76500358       0.00000000
Si      -0.61755391       2.79635772      -2.21325944       0.00000000
Si       2.61521128       0.42797088      -2.52050342       0.00000000
Si      -0.05725935      -2.34924608       2.87678506       0.00000000
Si      -2.22904217       2.97057927      -0.53338091       0.00000000
Si       2.86305712      -2.45079794       0.11483357       0.00000000
