10
Lattice="16.290000149 0.0 0.0 0.0 16.290000149 0.0 0.0 0.0 29.1751946751" Properties=species:S:1:pos:R:3:initial_magmoms:R:1 pbc="T T T"
Si       0.90880282       0.07392402      -1.21622634       0.00000000
H       -1.27050598      -1.76272463      -0.43062587       0.00000000
H        1.90162946       0.42419160       1.23778681       0.00000000
Si      -1.80457364      -2.01756539       0.95677133       0.00000000
Si       0.01933623       1.49675779      -2.80700383       0.00000000
Si       1.17996616       2.94583639       0.24425473       0.00000000
Si       1.24983397      -2.04680594      -2.14846134       0.00000000
Si       2.79663465       1.41532408      -0.83032604       0.00000000
Si      -2.65533518      -0.14289588       2.07222655       0.00000000
H       -2.87130801      -0.91816957      -1.59976345       0.00000000
