10
Lattice="16.290000149 0.0 0.0 0.0 16.290000149 0.0 0.0 0.0 29.1751946751" Properties=species:S:1:pos:R:3:initial_magmoms:R:1 pbc="T T T"
H        1.29702610       0.55073233       0.92033152       0.00000000
Si       1.22704426      -1.85218931      -0.66764515       0.00000000
Si      -1.02086173       1.33463971      -1.62015691       0.00000000
Si      -1.78614965      -0.58868803       1.44175060       0.00000000
H        0.96503590       1.25077879      -2.67484020       0.00000000
Si      -2.09122877       2.44283213       0.24982719       0.00000000
Si      -1.79910020      -0.69882472      -2.63831285       0.00000000
Si       2.47844207       1.08828604       1.97326429       0.00000000
Si      -0.30964032      -2.56828142      -2.27969136       0.00000000
Si      -2.85881358      -2.34615098       0.37446362       0.00000000
