10
Lattice="16.290000149 0.0 0.0 0.0 16.290000149 0.0 0.0 0.0 29.1751946751" Properties=species:S:1:pos:R:3:initial_magmoms:R:1 pbc="T T T"
Si       0.60502690       0.52129629      -2.18568888       0.00000000
Si      -2.30019689      -0.06573015       0.45930509       0.00000000
Si       0.77102200       2.04480227       0.88138263       0.00000000
Si       1.22002327      -1.87191487       0.95268681       0.00000000
Si       1.69767866       0.99864217       2.71516032       0.00000000
Si       3.03156903      -0.54765351       1.55839302       0.00000000
Si       1.29873655      -1.53179107      -2.94459405       0.00000000
Si      -0.23987025      -0.02971296       3.62014568       0.00000000
Si      -2.44408646       0.35129385       2.81715680       0.00000000
Si      -3.16633620       2.01080504      -0.33032155       0.00000000
