10
Lattice="16.290000149 0.0 0.0 0.0 16.290000149 0.0 0.0 0.0 29.1751946751" Properties=species:S:1:pos:R:3:initial_magmoms:R:1 pbc="T T T"
H       -0.90880282      -0.07392402       1.21622634       0.00000000
Si      -0.88946659       1.42283377      -1.59077749       0.00000000
Si       0.34103115      -2.12072996      -0.93223500       0.00000000
Si       1.88783183       1.34140006       0.38590030       0.00000000
H        0.99282664       0.35026758       2.45401315       0.00000000
H       -2.17930880      -1.83664865       0.78560047       0.00000000
Si       0.27116334       2.87191237       1.46048107       0.00000000
Si      -0.32702175       0.38338515      -3.59849769       0.00000000
Si      -1.72359605      -2.82062982      -1.83771634       0.00000000
Si       1.56623464      -3.44039916       0.58627554       0.00000000
