10
Lattice="16.290000149 0.0 0.0 0.0 16.290000149 0.0 0.0 0.0 29.1751946751" Properties=species:S:1:pos:R:3:initial_magmoms:R:1 pbc="T T T"
Si       1.13844132      -0.96519880      -0.28810505       0.00000000
Si      -1.88837591       1.63916497      -0.26202242       0.00000000
H       -1.15226339      -1.80540443       1.92961820       0.00000000
Si      -1.52690081       1.40366044       2.09962206       0.00000000
Si      -0.17814646      -2.66535353      -1.42552919       0.00000000
Si       2.42598176      -0.81013429       1.73919170       0.00000000
Si       2.61719378       0.23708466      -1.67640669       0.00000000
Si      -0.24828241       2.69812901      -1.69227799       0.00000000
Si      -1.08270509      -0.73060651       2.99089508       0.00000000
Si      -2.95981809      -0.05354523      -1.64618118       0.00000000
