10
Lattice="16.290000149 0.0 0.0 0.0 16.290000149 0.0 0.0 0.0 29.1751946751" Properties=species:S:1:pos:R:3:initial_magmoms:R:1 pbc="T T T"
Si      -0.83393398       1.24379690      -1.71408645       0.00000000
Si      -1.83181052      -1.02169252       0.94374753       0.00000000
Si       1.03962781       1.85331495       0.95286478       0.00000000
Si       1.74638576      -1.54250011      -0.45066281       0.00000000
H       -1.01279818       2.63106308      -1.10304117       0.00000000
Si      -0.42565770      -2.38628954       2.19738522       0.00000000
Si       1.49846824      -1.02780127      -2.74904731       0.00000000
Si       2.45656460       0.51049130       2.20768990       0.00000000
Si       1.06126093       1.26126141      -3.05314036       0.00000000
Si       0.99641044      -0.92652634       3.42246915       0.00000000
