10
Lattice="16.290000149 0.0 0.0 0.0 16.290000149 0.0 0.0 0.0 29.1751946751" Properties=species:S:1:pos:R:3:initial_magmoms:R:1 pbc="T T T"
Si      -1.33366231      -1.33994862       1.32886885       0.00000000
Si       1.49758858      -1.23582294      -1.28030966       0.00000000
Si      -1.24934527       1.37052658      -1.41322017       0.00000000
Si       1.41957577       1.42912171       1.23585833       0.00000000
Si       0.65850697       2.16042869      -2.53538860       0.00000000
H       -0.55483741      -0.45807480      -3.33621560       0.00000000
Si       2.36353241       0.49208832      -2.66260850       0.00000000
Si       0.10033011      -2.68659569       2.59043344       0.00000000
Si      -2.66401775       0.07939746       2.61514483       0.00000000
Si      -2.69452892      -2.62234549      -0.08100785       0.00000000
