10
Lattice="16.290000149 0.0 0.0 0.0 16.290000149 0.0 0.0 0.0 29.1751946751" Properties=species:S:1:pos:R:3:initial_magmoms:R:1 pbc="T T T"
Si       1.35884665       1.36523233       1.33097238       0.00000000
Si       1.36550926      -1.34719930      -1.34987791       0.00000000
Si      -1.32945949       1.36682875      -1.37552290       0.00000000
Si      -1.35553978      -1.37854126       1.35539202       0.00000000
Si       2.69483843      -0.01050705       2.68385533       0.00000000
Si      -0.00324171      -2.69592986      -2.68776481       0.00000000
Si      -2.70795188       0.00293220      -2.68044184       0.00000000
Si      -2.71466336       2.68123628      -0.01703831       0.00000000
Si       0.01195686       2.71265969       2.69815118       0.00000000
Si       2.69754257       2.72272691      -0.04907268       0.00000000
