10
Lattice="16.290000149 0.0 0.0 0.0 16.290000149 0.0 0.0 0.0 29.1751946751" Properties=species:S:1:pos:R:3:initial_magmoms:R:1 pbc="T T T"
Si      -1.14614812      -0.12613347       2.05947699       0.00000000
Si      -1.52513497       1.00025488      -1.50351448       0.00000000
Si       0.99766477      -1.76510297      -1.26699118       0.00000000
Si       1.52808346       1.84388141       0.42519929       0.00000000
H       -2.06216741      -2.81305497      -0.91861018       0.00000000
H        0.70952725      -2.97650883       1.91940688       0.00000000
Si       2.29996883      -0.47034117      -2.76329939       0.00000000
Si      -2.55982691       2.62302071      -0.18946371       0.00000000
Si      -0.23387553       2.43587940      -2.78596851       0.00000000
Si       0.41718690       0.65140453       3.65215087       0.00000000
