10
Lattice="16.290000149 0.0 0.0 0.0 16.290000149 0.0 0.0 0.0 29.1751946751" Properties=species:S:1:pos:R:3:initial_magmoms:R:1 pbc="T T T"
Si      -0.51755285      -0.91109971      -2.09209486       0.00000000
Si       2.05729670       1.00690120       0.72541204       0.00000000
Si      -1.41383681       1.94955464       0.00344267       0.00000000
Si      -0.68072164      -1.76397896       1.50646118       0.00000000
H        1.45148788       1.57151260      -2.37882867       0.00000000
Si      -1.94372282      -0.33640479       2.83340213       0.00000000
H        2.85716829      -0.45890559      -1.91966946       0.00000000
Si       0.25449867       1.20619306      -3.26884716       0.00000000
Si       1.04976019       2.24831324       2.56657105       0.00000000
Si      -3.08364816       1.16491420       1.45009470       0.00000000
