10
Lattice="16.290000149 0.0 0.0 0.0 16.290000149 0.0 0.0 0.0 29.1751946751" Properties=species:S:1:pos:R:3:initial_magmoms:R:1 pbc="T T T"
Si      -1.41977125       1.37248138      -1.25316214       0.00000000
Si      -1.30085425      -1.23621553       1.50126799       0.00000000
Si       1.18469026      -1.44762715      -1.41461766       0.00000000
Si       1.85020193       0.94239280       1.10474792       0.00000000
Si       3.46129923      -0.83039905       1.01605533       0.00000000
Si       2.58193244      -2.71914311      -0.05767936       0.00000000
Si      -0.04364091       2.69317685      -2.61701496       0.00000000
Si       2.56797191      -0.11300373      -2.75527621       0.00000000
Si      -2.77622328      -0.00778662      -2.60464468       0.00000000
Si       0.13787856      -2.59038695       2.78917779       0.00000000
