10
Lattice="16.290000149 0.0 0.0 0.0 16.290000149 0.0 0.0 0.0 29.1751946751" Properties=species:S:1:pos:R:3:initial_magmoms:R:1 pbc="T T T"
Si      -1.30870603       1.42387633       1.29873379       0.00000000
Si       1.26444610       1.48222711      -1.32884259       0.00000000
Si       1.45213948      -1.42053688       1.21220016       0.00000000
Si      -1.38341197      -1.02737773      -1.62794669       0.00000000
Si       0.33831072      -1.46660500      -3.13843404       0.00000000
Si      -0.42438708       2.40790637      -2.64478975       0.00000000
Si       2.24011937       0.02660157      -2.83644160       0.00000000
Si      -2.22480677       0.81344116      -2.76309516       0.00000000
Si       2.41075712      -2.69211800      -0.54067471       0.00000000
Si      -2.60789870      -0.06256989       2.57039592       0.00000000
