10
Lattice="16.290000149 0.0 0.0 0.0 16.290000149 0.0 0.0 0.0 29.1751946751" Properties=species:S:1:pos:R:3:initial_magmoms:R:1 pbc="T T T"
Si       1.35988921      -1.35284867       1.35299965       0.00000000
Si      -1.36287028       1.36240113       1.34512235       0.00000000
Si       1.34959393       1.38818820      -1.33499856       0.00000000
Si      -1.34702011      -1.38759524      -1.33928731       0.00000000
Si      -2.78101254      -0.04094817      -2.60085190       0.00000000
Si       0.00039096      -2.71672894       2.69514613       0.00000000
Si       2.79218748       0.05653445      -2.61783187       0.00000000
Si      -0.00270414       2.70557680       2.70815827       0.00000000
Si      -2.72709263       0.01412832       2.69453345       0.00000000
Si      -0.02777445       2.72812216      -2.69386243       0.00000000
