10
Lattice="16.290000149 0.0 0.0 0.0 16.290000149 0.0 0.0 0.0 29.1751946751" Properties=species:S:1:pos:R:3:initial_magmoms:R:1 pbc="T T T"
Si      -1.66855214       1.68551003       0.25373667       0.00000000
Si       0.36147510      -0.23550453       2.36164448       0.00000000
Si       1.64009350       1.05896404      -1.43025557       0.00000000
Si      -1.07144218      -1.69271021      -1.38415876       0.00000000
H        1.88837591      -1.63916497       0.26202242       0.00000000
H        0.54144703       2.46584990       1.37520198       0.00000000
H       -1.07769754       0.05587470       2.80642033       0.00000000
Si      -2.40350807      -0.27546390      -2.76061527       0.00000000
Si       0.35067483       2.47360394      -2.79084077       0.00000000
Si      -3.51699474       0.85444309      -1.01763079       0.00000000
