10
Lattice="16.290000149 0.0 0.0 0.0 16.290000149 0.0 0.0 0.0 29.1751946751" Properties=species:S:1:pos:R:3:initial_magmoms:R:1 pbc="T T T"
Si      -0.56244484       1.03944862       2.00772020       0.00000000
Si      -1.62318448      -1.68458150      -0.07349232       0.00000000
Si       2.19551735      -0.71985511      -0.46642384       0.00000000
Si       0.04425993       2.14300816      -0.98425437       0.00000000
Si       0.67689838       2.82865101       1.16169790       0.00000000
Si       1.90842239       0.15747543      -2.70999631       0.00000000
Si       1.92205712      -2.75346615       0.72331143       0.00000000
Si      -3.44812062      -0.23389182       0.09444011       0.00000000
Si      -0.22009419      -0.80668081      -3.39386287       0.00000000
Si      -2.79772608       1.52995681       1.68498419       0.00000000
