10
Lattice="16.290000149 0.0 0.0 0.0 16.290000149 0.0 0.0 0.0 29.1751946751" Properties=species:S:1:pos:R:3:initial_magmoms:R:1 pbc="T T T"
Si      -1.18718263      -1.14874165      -1.69373675       0.00000000
Si       0.57477637      -1.74073964       1.51743105       0.00000000
Si      -1.99682822       0.88791252       0.97258429       0.00000000
Si       1.44038560       1.41974845      -1.34719379       0.00000000
H        0.46626867       2.27969755       2.00795360       0.00000000
Si      -2.47844207      -2.58436617      -0.41128272       0.00000000
Si      -2.73880514       2.21204518      -0.81754731       0.00000000
Si      -2.62264115       0.47605245      -2.62270413       0.00000000
Si      -3.51313401      -0.96160034       0.90276805       0.00000000
H       -0.74850922       0.10946228       3.74405273       0.00000000
