10
Lattice="16.290000149 0.0 0.0 0.0 16.290000149 0.0 0.0 0.0 29.1751946751" Properties=species:S:1:pos:R:3:initial_magmoms:R:1 pbc="T T T"
Si       1.17796249      -0.52525476       0.79954621       0.00000000
H       -0.77397049       0.74564218      -1.71135857       0.00000000
H        0.62289703       1.64476873      -1.09935051       0.00000000
H       -0.58428973       0.09632277       2.32742198       0.00000000
Si      -1.89398945       0.56466028       1.72769668       0.00000000
Si      -1.65058427      -0.20171907      -2.47113899       0.00000000
Si       2.51201576      -1.59813046      -0.82072740       0.00000000
Si      -1.62052921       2.59827131       0.53796141       0.00000000
Si       0.49278879      -2.38622438       2.22385004       0.00000000
Si      -2.86088241      -1.43485579       0.85200321       0.00000000
