10
Lattice="16.290000149 0.0 0.0 0.0 16.290000149 0.0 0.0 0.0 29.1751946751" Properties=species:S:1:pos:R:3:initial_magmoms:R:1 pbc="T T T"
Si      -1.35949825      -1.36388026       1.34214648       0.00000000
Si      -1.35988921       1.35284867      -1.35299965       0.00000000
Si       1.33178896       1.35474157       1.38337103       0.00000000
Si       1.35084826      -1.36058968      -1.36008923       0.00000000
Si       2.68341914       2.70619256       0.01012379       0.00000000
Si      -2.71236647       0.02122587       2.67866215       0.00000000
Si       0.02759526      -2.70624143       2.68954450       0.00000000
Si      -2.70690932      -0.03474657      -2.69228696       0.00000000
Si       2.66362679      -0.01151703       2.75568466       0.00000000
Si      -0.01029528       2.74103687      -2.68799821       0.00000000
