10
Lattice="16.290000149 0.0 0.0 0.0 16.290000149 0.0 0.0 0.0 29.1751946751" Properties=species:S:1:pos:R:3:initial_magmoms:R:1 pbc="T T T"
Si      -0.47923551       2.03683646      -1.03609869       0.00000000
Si       1.59321088       0.81132346       1.56166065       0.00000000
Si       1.29360520      -1.49853340      -1.32627517       0.00000000
Si      -1.87154183      -0.89759530       1.27516023       0.00000000
H       -2.79166620      -0.73407628      -1.26346098       0.00000000
H        1.03822687       1.16983378      -2.81076743       0.00000000
H       -1.08115102       1.95473486      -2.43691649       0.00000000
Si      -2.20095821       2.47606373       0.47438867       0.00000000
Si       2.22026186      -2.54469350       0.50750251       0.00000000
Si       3.29292579      -0.78723055       1.57478948       0.00000000
