10
Lattice="16.290000149 0.0 0.0 0.0 16.290000149 0.0 0.0 0.0 29.1751946751" Properties=species:S:1:pos:R:3:initial_magmoms:R:1 pbc="T T T"
Si       1.36904419      -1.34788348       1.34182555       0.00000000
Si       1.37958382       1.34395759      -1.33499856       0.00000000
Si      -1.35114148       1.37598373       1.34841915       0.00000000
Si      -1.38038203      -1.34416936      -1.35652985       0.00000000
Si      -0.05440860       2.69060466      -2.59656315       0.00000000
Si      -0.00594585      -2.69079851       2.68379698       0.00000000
Si      -2.72766278       0.02042766       2.68102534       0.00000000
Si       2.72427446      -2.70055622      -0.02415706       0.00000000
Si       2.72699489       0.01482390       2.69943489       0.00000000
Si      -0.04414590      -2.78521536      -2.64560665       0.00000000
