10
Lattice="16.290000149 0.0 0.0 0.0 16.290000149 0.0 0.0 0.0 29.1751946751" Properties=species:S:1:pos:R:3:initial_magmoms:R:1 pbc="T T T"
Si       0.62538940      -0.41809914       2.14816958       0.00000000
Si       1.83568754       0.81503758      -1.17497262       0.00000000
Si      -0.87936679      -1.88874407      -1.07373469       0.00000000
Si      -1.61109730       1.77279185       0.08869259       0.00000000
H        2.71230131       1.76239883      -0.41519220       0.00000000
Si       0.53167302       2.10774683      -2.59271203       0.00000000
Si      -2.27660897      -0.61722811      -2.43067299       0.00000000
H       -0.52168725      -3.06989940       1.42450806       0.00000000
Si      -1.50863320      -1.00512559       3.14972484       0.00000000
Si      -3.46129923       0.83039905      -1.01605533       0.00000000
