10
Lattice="16.290000149 0.0 0.0 0.0 16.290000149 0.0 0.0 0.0 29.1751946751" Properties=species:S:1:pos:R:3:initial_magmoms:R:1 pbc="T T T"
H        0.90442081      -0.90673399       0.80249290       0.00000000
Si       1.33760449       1.30098457      -1.40691541       0.00000000
Si      -1.14090274       1.43094619       1.46287344       0.00000000
Si      -1.31305546      -1.46460133      -1.28233733       0.00000000
H       -1.09792972      -1.23852871       2.22530880       0.00000000
Si      -2.57045125       2.64613133       0.07956076       0.00000000
Si      -0.49787127      -2.55195070       2.66235321       0.00000000
Si      -2.65724600      -0.12522123      -2.65800611       0.00000000
Si      -0.00672777       2.67276548      -2.70039767       0.00000000
Si       2.71516835       2.68454315      -0.12542416       0.00000000
