10
Lattice="16.290000149 0.0 0.0 0.0 16.290000149 0.0 0.0 0.0 29.1751946751" Properties=species:S:1:pos:R:3:initial_magmoms:R:1 pbc="T T T"
Si      -0.97847515       1.88620283      -0.92523295       0.00000000
Si      -1.75674620      -1.49503105       0.34120390       0.00000000
Si       0.39561894       0.62964109       2.22927663       0.00000000
Si       1.76849129      -0.98885188      -1.24753132       0.00000000
H       -0.37364373      -1.18477171      -2.52476300       0.00000000
Si       1.88507882      -1.23981562       2.58789812       0.00000000
Si       2.51046821      -2.31298454       0.54260027       0.00000000
Si      -2.48704319       0.81122572      -2.37080549       0.00000000
Si      -1.06303654      -3.54811842      -0.41770126       0.00000000
Si      -2.59315625       2.60806160       0.61483805       0.00000000
