10
Lattice="16.290000149 0.0 0.0 0.0 16.290000149 0.0 0.0 0.0 29.1751946751" Properties=species:S:1:pos:R:3:initial_magmoms:R:1 pbc="T T T"
Si       1.38230425      -1.35567010      -1.32421832       0.00000000
Si       1.33727869       1.32449104       1.40465434       0.00000000
Si      -1.35309628      -1.39823587       1.31992957       0.00000000
Si      -1.32879160       1.39501045      -1.37003797       0.00000000
Si      -0.03228678      -2.65082285      -2.66601470       0.00000000
Si      -2.65857689       2.70949943       0.04957741       0.00000000
Si       2.70311375       0.04776228      -2.66768148       0.00000000
Si      -2.70490565      -0.02894733       2.67858921       0.00000000
Si      -2.75545353       0.03569139      -2.64972823       0.00000000
Si       2.68705181       2.71955281       0.09385660       0.00000000
