10
Lattice="16.290000149 0.0 0.0 0.0 16.290000149 0.0 0.0 0.0 29.1751946751" Properties=species:S:1:pos:R:3:initial_magmoms:R:1 pbc="T T T"
Si       1.34172260       1.36106209       1.35384573       0.00000000
Si      -1.33599178       1.37573938      -1.35288295       0.00000000
Si       1.36606801      -1.35148357      -1.34859420       0.00000000
Si      -1.35311257      -1.34840476       1.37377239       0.00000000
Si      -2.69483843       0.01050705      -2.68385533       0.00000000
Si       2.66965409       0.00179190       2.71898227       0.00000000
Si      -0.00436572      -2.72026712      -2.67349814       0.00000000
Si      -2.68288157       2.72316674       0.01429585       0.00000000
Si       2.69408909      -2.71208954       0.02617015       0.00000000
Si       2.69376329       2.72658764      -0.00811070       0.00000000
