10
Lattice="16.290000149 0.0 0.0 0.0 16.290000149 0.0 0.0 0.0 29.1751946751" Properties=species:S:1:pos:R:3:initial_magmoms:R:1 pbc="T T T"
Si       1.27892140      -1.37333009       1.38728926       0.00000000
Si      -1.34661954      -1.21339715      -1.48199778       0.00000000
Si      -1.43216452       1.30699395       1.35231695       0.00000000
Si       1.33572463       1.40655843      -1.35310381       0.00000000
Si      -1.63218308       0.61189965      -3.05249851       0.00000000
Si      -0.29809234       2.58988033      -2.56670234       0.00000000
Si       2.60870669      -2.68781907      -0.03232612       0.00000000
Si      -2.82456222      -2.52065109      -0.10894309       0.00000000
Si      -0.06991505       2.70215102       2.67068273       0.00000000
Si       2.58019919      -0.04628478       2.81308686       0.00000000
