10
Lattice="16.290000149 0.0 0.0 0.0 16.290000149 0.0 0.0 0.0 29.1751946751" Properties=species:S:1:pos:R:3:initial_magmoms:R:1 pbc="T T T"
Si      -1.40403023       1.31937598       1.31238778       0.00000000
Si       1.36864183      -1.23947353       1.44598100       0.00000000
Si       1.32938293       1.39805668      -1.34357607       0.00000000
Si      -1.39151951      -1.37425699      -1.31300046       0.00000000
Si       2.56426268      -2.63979452      -0.03425168       0.00000000
Si      -0.11757308       2.72929178       2.63244864       0.00000000
Si       2.63015573       0.04088790      -2.75985672       0.00000000
Si       0.00053920      -2.66642867       2.74570675       0.00000000
Si      -2.73140460      -0.00851967      -2.68893182       0.00000000
Si      -2.72993850       2.69210171      -0.02065604       0.00000000
