10
Lattice="16.290000149 0.0 0.0 0.0 16.290000149 0.0 0.0 0.0 29.1751946751" Properties=species:S:1:pos:R:3:initial_magmoms:R:1 pbc="T T T"
Si       1.33571485       1.36430706      -1.36834581       0.00000000
Si      -1.36192546      -1.34281403      -1.37581466       0.00000000
Si      -1.42568452       1.35880104       1.30019255       0.00000000
Si       1.40090743      -1.33898588       1.36119788       0.00000000
Si       2.70560612      -2.68528924      -0.07013717       0.00000000
Si       0.05730822      -2.71803214       2.67338144       0.00000000
Si       2.69671178       2.70917689       0.00002918       0.00000000
Si      -0.12903309       2.79054544       2.61476847       0.00000000
Si      -2.72502380      -2.69211475      -0.02465304       0.00000000
Si       2.63055809       0.09220792       2.79060737       0.00000000
