10
Lattice="16.290000149 0.0 0.0 0.0 16.290000149 0.0 0.0 0.0 29.1751946751" Properties=species:S:1:pos:R:3:initial_magmoms:R:1 pbc="T T T"
Si      -1.34419054       1.33938010      -1.37566878       0.00000000
Si       1.31305546       1.46460133       1.28233733       0.00000000
Si      -1.40826563      -1.29403526       1.38970205       0.00000000
Si       1.42110703      -1.35397920      -1.33561124       0.00000000
H        2.21747627       0.55786735       2.08483024       0.00000000
H        0.21512574       0.22607262       3.50764613       0.00000000
Si      -2.63671542      -2.65486603      -0.05651235       0.00000000
Si      -0.02964780      -2.74642887       2.54646934       0.00000000
Si      -2.61509742       2.69983946       0.04872258       0.00000000
Si       2.65065995       2.76558591      -0.12457808       0.00000000
