10
Lattice="16.290000149 0.0 0.0 0.0 16.290000149 0.0 0.0 0.0 29.1751946751" Properties=species:S:1:pos:R:3:initial_magmoms:R:1 pbc="T T T"
Si       1.31479849      -1.26369676       1.47288053       0.00000000
Si      -0.85722868      -1.93673441      -1.04054207       0.00000000
Si      -1.43130457       1.37184607       1.28488433       0.00000000
Si       1.21713994       1.43446483      -1.44231076       0.00000000
Si       2.57281004      -2.66462048       0.10803283       0.00000000
Si       2.61247619       2.75607255      -0.07720924       0.00000000
Si      -0.05947479       2.77816179       2.59716999       0.00000000
Si      -0.09615987      -2.66804138       2.73070486       0.00000000
Si       2.75416662       0.16254162      -2.64079858       0.00000000
Si      -1.51042510      -1.51443244      -3.17231228       0.00000000
