10
Lattice="16.290000149 0.0 0.0 0.0 16.290000149 0.0 0.0 0.0 29.1751946751" Properties=species:S:1:pos:R:3:initial_magmoms:R:1 pbc="T T T"
Si      -1.33910317      -1.35047359       1.37173013       0.00000000
Si       1.32317155      -1.37005417      -1.37394744       0.00000000
Si      -1.36057339       1.32385573      -1.39247369       0.00000000
Si       1.34452774       1.32713002       1.40711964       0.00000000
Si       2.69941592       2.67533930       0.01455842       0.00000000
Si       2.62625753      -2.75027331       0.00195474       0.00000000
Si      -2.72888453       0.01317861       2.68262998       0.00000000
Si      -2.73895176       2.67879278      -0.07343396       0.00000000
Si       2.67628412      -0.02164941      -2.74771983       0.00000000
Si      -0.00659745       2.70151733      -2.73342399       0.00000000
