10
Lattice="16.290000149 0.0 0.0 0.0 16.290000149 0.0 0.0 0.0 29.1751946751" Properties=species:S:1:pos:R:3:initial_magmoms:R:1 pbc="T T T"
Si       1.84241531      -0.85449196       1.12578324       0.00000000
Si      -0.86288131       1.79823683       1.26529902       0.00000000
Si      -1.00147663      -2.15472719      -0.40819015       0.00000000
Si       1.11211831       1.45176481      -1.58622616       0.00000000
H       -1.90249283      -0.57585151      -1.90385650       0.00000000
Si      -0.01555695      -2.53760898      -2.55916055       0.00000000
Si      -1.92894779       0.63501679       2.98115057       0.00000000
Si       2.62068635       2.52674192      -0.14065361       0.00000000
Si       1.00600525       3.24860070       1.39941739       0.00000000
H        3.22551777      -0.54423261      -1.74018366       0.00000000
