10
Lattice="16.290000149 0.0 0.0 0.0 16.290000149 0.0 0.0 0.0 29.1751946751" Properties=species:S:1:pos:R:3:initial_magmoms:R:1 pbc="T T T"
Si      -1.34309422      -1.32800968       1.37954908       0.00000000
Si       1.37837836      -1.35493705      -1.31903973       0.00000000
Si       1.36186030       1.30702816       1.38503402       0.00000000
Si      -1.35272161       1.34060185      -1.37461847       0.00000000
Si      -0.05751999       2.76128535       2.50314418       0.00000000
Si       0.00379557      -2.71780733      -2.65021633       0.00000000
Si      -2.77257432       0.05750370       2.60438210       0.00000000
Si       2.73235430       0.02272455      -2.65999002       0.00000000
Si      -2.72264546      -2.68136660       0.03655652       0.00000000
Si       2.71293662       2.70409115       0.04714711       0.00000000
