10
Lattice="16.290000149 0.0 0.0 0.0 16.290000149 0.0 0.0 0.0 29.1751946751" Properties=species:S:1:pos:R:3:initial_magmoms:R:1 pbc="T T T"
Si      -1.38233683       1.36031764      -1.32140292       0.00000000
Si      -1.37652130      -1.35555607       1.33260619       0.00000000
Si       1.35065278       1.36969742       1.35040306       0.00000000
Si       1.35114148      -1.37598373      -1.34841915       0.00000000
Si      -0.00731421      -2.69731451       2.68616017       0.00000000
Si      -0.03362256       2.73396702      -2.65870632       0.00000000
Si      -2.73802323      -0.01127268      -2.65955240       0.00000000
Si       2.72526815       0.02394630       2.68753141       0.00000000
Si      -2.69762402       0.01200573       2.71565630       0.00000000
Si       2.73072530      -0.03202614      -2.68341771       0.00000000
