10
Lattice="16.290000149 0.0 0.0 0.0 16.290000149 0.0 0.0 0.0 29.1751946751" Properties=species:S:1:pos:R:3:initial_magmoms:R:1 pbc="T T T"
Si      -1.37199268       1.35607735       1.33246032       0.00000000
Si      -1.37319814      -1.34760655      -1.34278833       0.00000000
Si       1.34998489       1.36466218      -1.35652985       0.00000000
Si       1.36902790      -1.34614045       1.36216066       0.00000000
Si      -0.00421911       2.71254566       2.66214899       0.00000000
Si      -0.01332522      -2.70494964      -2.68236740       0.00000000
Si       2.71966439      -2.69556986      -0.01056142       0.00000000
Si       2.72104904       0.01894527      -2.69497108       0.00000000
Si      -2.70298343       0.02236617      -2.71548124       0.00000000
Si      -2.71764443      -2.70297040       0.02275665       0.00000000
