10
Lattice="16.290000149 0.0 0.0 0.0 16.290000149 0.0 0.0 0.0 29.1751946751" Properties=species:S:1:pos:R:3:initial_magmoms:R:1 pbc="T T T"
Si      -1.37613034      -1.32069547       1.36385283       0.00000000
Si      -1.37275831       1.35325918      -1.34500565       0.00000000
Si       1.29138976      -1.36622602      -1.41298385       0.00000000
Si       1.40957371       1.32734179       1.35302883       0.00000000
Si       0.04364091      -2.69317685       2.61701496       0.00000000
Si       0.04395042       2.69441489       2.69806365       0.00000000
Si      -0.00965997       2.70255989      -2.69616727       0.00000000
Si       2.68064984      -0.00676035      -2.72566339       0.00000000
Si       2.61161282      -2.80618059      -0.13826125       0.00000000
Si      -2.73258236      -2.70096347       0.01237028       0.00000000
