10
Lattice="16.290000149 0.0 0.0 0.0 16.290000149 0.0 0.0 0.0 29.1751946751" Properties=species:S:1:pos:R:3:initial_magmoms:R:1 pbc="T T T"
H        1.35777151       0.57412477       0.27290477       0.00000000
Si      -0.46470483       0.42037974      -2.21253006       0.00000000
Si      -1.35777151       1.35237952       1.32729631       0.00000000
Si      -0.45263394      -2.20801178       0.61165796       0.00000000
H        2.27410031      -1.19552311      -0.18628362       0.00000000
H        2.95857354      -0.27043029       1.44204235       0.00000000
Si       0.62408620      -2.11973627       2.71113414       0.00000000
Si       1.36273996       1.71571169      -2.84761570       0.00000000
Si      -2.76276936      -2.02813760       1.20659853       0.00000000
Si      -2.53526322      -0.17612748       2.64449800       0.00000000
