10
Lattice="16.290000149 0.0 0.0 0.0 16.290000149 0.0 0.0 0.0 29.1751946751" Properties=species:S:1:pos:R:3:initial_magmoms:R:1 pbc="T T T"
H        0.62835418      -0.45317151      -0.04338351       0.00000000
H       -1.18019422      -1.67881484       1.00295567       0.00000000
Si       0.81925669       1.71378947       1.68454657       0.00000000
Si      -1.92722105      -1.76759534      -0.30598944       0.00000000
Si      -0.11883555       0.78459157      -2.65260870       0.00000000
Si      -2.25285815       0.19756512      -1.65105344       0.00000000
Si       2.59910210       0.16589736       1.05094886       0.00000000
Si      -0.40594680       3.03345867       0.16603603       0.00000000
Si       1.38639304      -0.99784396      -2.55212933       0.00000000
Si      -0.31253994      -2.48945411      -1.84606044       0.00000000
