10
Lattice="16.290000149 0.0 0.0 0.0 16.290000149 0.0 0.0 0.0 29.1751946751" Properties=species:S:1:pos:R:3:initial_magmoms:R:1 pbc="T T T"
Si       1.36920709      -1.34175844       1.35355398       0.00000000
Si       1.37652130       1.35555607      -1.33260619       0.00000000
Si      -1.32110272       1.36756180       1.38305010       0.00000000
Si      -1.36679617      -1.36145305      -1.35212440       0.00000000
Si      -0.02005299      -2.70122411       2.66623352       0.00000000
Si      -0.00581553       2.71587371      -2.65400911       0.00000000
Si       2.72766278      -0.02042766      -2.68102534       0.00000000
Si      -2.68420106       0.01826109       2.73421172       0.00000000
Si      -2.71013474       2.71785295       0.05111494       0.00000000
Si       2.72171693      -2.71122617       0.00277164       0.00000000
