10
Lattice="16.290000149 0.0 0.0 0.0 16.290000149 0.0 0.0 0.0 29.1751946751" Properties=species:S:1:pos:R:3:initial_magmoms:R:1 pbc="T T T"
Si      -1.38926008      -1.35946567       1.31267953       0.00000000
Si      -1.36920709       1.34175844      -1.35355398       0.00000000
Si       1.35250984      -1.36946773      -1.35078234       0.00000000
Si       1.37722177       1.36684504       1.33517361       0.00000000
Si       2.77303044      -0.08206902       2.52946020       0.00000000
Si       0.00731421       2.69731451      -2.68616017       0.00000000
Si      -0.06903702      -2.79942024       2.58740214       0.00000000
Si      -2.69030981       2.70932024       0.02949612       0.00000000
Si      -2.68064984       0.00676035       2.72566339       0.00000000
Si       2.72749989      -0.02655270      -2.69275377       0.00000000
