10
Lattice="16.290000149 0.0 0.0 0.0 16.290000149 0.0 0.0 0.0 29.1751946751" Properties=species:S:1:pos:R:3:initial_magmoms:R:1 pbc="T T T"
H        1.98589763      -0.08386092      -1.05468329       0.00000000
Si       1.02086173      -1.33463971       1.62015691       0.00000000
Si       0.75930949       1.87844879      -1.27565621       0.00000000
Si      -0.77823847      -2.03346443      -1.01815594       0.00000000
Si      -1.07036704       1.10819242       1.86998410       0.00000000
H       -1.21143844       1.25937991      -2.36998859       0.00000000
H       -3.01998684       0.03373659      -1.32364941       0.00000000
H       -1.83979262       1.71255143      -2.32660507       0.00000000
H        2.31788783      -0.78390739       2.54048843       0.00000000
Si      -1.02053593       3.42634089      -0.64205851       0.00000000
