10
Lattice="16.290000149 0.0 0.0 0.0 16.290000149 0.0 0.0 0.0 29.1751946751" Properties=species:S:1:pos:R:3:initial_magmoms:R:1 pbc="T T T"
Si       1.40030470       1.41614184       1.25750924       0.00000000
Si      -1.26074827       1.39101940      -1.43165598       0.00000000
Si       1.42982218      -1.28200672      -1.41158344       0.00000000
Si      -1.29687949      -1.58892661       1.27693992       0.00000000
Si      -2.52734465      -2.72546363      -0.35024821       0.00000000
Si       0.28228941      -2.67393836       2.59956820       0.00000000
Si      -2.58496238       2.78381442      -0.06675285       0.00000000
Si       2.86822949       0.12231835       2.52919763       0.00000000
Si      -2.56779272       0.07786620      -2.87833718       0.00000000
Si       2.86688446      -2.63241515      -0.12393623       0.00000000
