10
Lattice="16.290000149 0.0 0.0 0.0 16.290000149 0.0 0.0 0.0 29.1751946751" Properties=species:S:1:pos:R:3:initial_magmoms:R:1 pbc="T T T"
Si      -1.23478201       1.36961434       1.41832291       0.00000000
Si       1.32590827      -1.37272573       1.33304382       0.00000000
Si       1.34981303       1.41113755      -1.30518151       0.00000000
Si      -1.38701206      -1.35881407      -1.33318970       0.00000000
H       -1.88398739       0.54486792       2.49459585       0.00000000
Si       2.61236542       0.03719007       2.65310468       0.00000000
Si      -2.81395092       2.45462609       0.09569464       0.00000000
Si      -0.08724924       2.76154599      -2.59282873       0.00000000
Si       2.68890887       0.04950531      -2.67886638       0.00000000
Si      -0.00146610      -2.70062138      -2.66827578       0.00000000
