10
Lattice="16.290000149 0.0 0.0 0.0 16.290000149 0.0 0.0 0.0 29.1751946751" Properties=species:S:1:pos:R:3:initial_magmoms:R:1 pbc="T T T"
Si      -1.39261582      -1.34320825      -1.32945527       0.00000000
Si      -1.35941680       1.35531172       1.35384573       0.00000000
Si       1.32978529      -1.36997272       1.37269291       0.00000000
Si       1.36024759       1.34447887      -1.37237198       0.00000000
Si      -0.03648960      -2.73841744      -2.61882382       0.00000000
Si       2.70713738       2.70146846      -0.01000709       0.00000000
Si      -2.70220477       2.71362080      -0.00954029       0.00000000
Si       2.68965821      -2.72731581       0.03311385       0.00000000
Si       2.70298343      -0.02236617       2.71548124       0.00000000
Si      -0.01164735       2.71718831       2.70436550       0.00000000
