10
Lattice="16.290000149 0.0 0.0 0.0 16.290000149 0.0 0.0 0.0 29.1751946751" Properties=species:S:1:pos:R:3:initial_magmoms:R:1 pbc="T T T"
Si      -1.34082991      -1.28142028      -1.42771733       0.00000000
Si      -1.11348667       1.12990699       1.74298448       0.00000000
Si       1.34768800       1.38549709      -1.35302883       0.00000000
Si       1.33206589      -1.41724630       1.37645651       0.00000000
Si       0.73495594       1.96097393       3.01435194       0.00000000
Si       2.40350807       0.27546390       2.76061527       0.00000000
Si      -2.81241966      -0.36170316       2.44905337       0.00000000
Si       0.04895145      -2.64507248      -2.73861717       0.00000000
Si       2.73258236       0.03253113      -2.70322766       0.00000000
Si      -0.06545322      -3.23675787       2.12675499       0.00000000
