10
Lattice="16.290000149 0.0 0.0 0.0 16.290000149 0.0 0.0 0.0 29.1751946751" Properties=species:S:1:pos:R:3:initial_magmoms:R:1 pbc="T T T"
Si       1.34433226      -1.37178091       1.29348226       0.00000000
Si      -1.30925989      -1.42965928      -1.32204477       0.00000000
Si       1.37635840       1.25302681      -1.42929279       0.00000000
Si      -1.19562085       1.40032099       1.48023268       0.00000000
Si      -2.56426268       2.63979452       0.03425168       0.00000000
Si       2.72189612       0.01177767       2.57497351       0.00000000
Si      -2.63719138      -0.07038909      -2.68718131       0.00000000
Si       2.72603379       2.59801067      -0.11929737       0.00000000
Si      -2.56372348      -0.02663415       2.77995842       0.00000000
Si       0.00672777      -2.67276548       2.70039767       0.00000000
