10
Lattice="16.28999089631971 0.0 0.0 0.0 16.28999089631971 0.0 0.0 0.0 34.31052061344573" Properties=species:S:1:pos:R:3:initial_magmoms:R:1 pbc="T T T"
Si      -1.34514512      -1.35220846       1.36312344       0.00000000
Si       1.35739683      -1.35454119      -1.35584960       0.00000000
Si      -1.35856319       1.35746199      -1.35464873       0.00000000
Si       1.35032697       1.35151614       1.38285200       0.00000000
Si       2.46580101      -0.32713578       2.69567618       0.00000000
Si      -2.59205633       0.11135844       2.68589768       0.00000000
Si      -0.00017919      -2.71301658      -2.71331180       0.00000000
Si       2.71463076       0.00198738      -2.71344904       0.00000000
Si      -2.71246458      -2.71658175       0.00391140       0.00000000
Si      -2.71589682       0.00301365      -2.71338042       0.00000000
