10
Lattice="16.28999089631971 0.0 0.0 0.0 16.28999089631971 0.0 0.0 0.0 34.31052061344573" Properties=species:S:1:pos:R:3:initial_magmoms:R:1 pbc="T T T"
Si       1.35495333       1.35700587       1.35749651       0.00000000
Si      -1.35723393      -1.35652857       1.35759944       0.00000000
Si       1.35752715      -1.35759394      -1.35701616       0.00000000
Si      -1.35834165       1.35860229      -1.35677599       0.00000000
Si      -0.00285075       2.71425609      -2.71276283       0.00000000
Si      -2.71463076      -0.00198738       2.71344904       0.00000000
Si       0.00355122      -2.71698371       2.71142472       0.00000000
Si       2.71394658      -2.71459258       0.00072052       0.00000000
Si      -0.00123804      -2.71470194      -2.71440973       0.00000000
Si       2.71451673       2.71507059       0.00051466       0.00000000
