10
Lattice="16.28999089631971 0.0 0.0 0.0 16.28999089631971 0.0 0.0 0.0 34.31052061344573" Properties=species:S:1:pos:R:3:initial_magmoms:R:1 pbc="T T T"
Si      -1.84357907      -0.79354701       1.22824870       0.00000000
Si       0.73827909      -1.82390580      -1.35331062       0.00000000
Si      -1.82616506       1.04539267      -1.34075296       0.00000000
Si       2.13628689       0.39342289       1.26499529       0.00000000
Si       1.76796999      -0.12977838      -2.60787551       0.00000000
Si      -0.76778680      -0.91339254       3.30293842       0.00000000
Si       3.39470568       0.47307121      -0.93691791       0.00000000
Si       1.51228215      -1.45648485       2.89529490       0.00000000
Si      -0.89100566       2.72536082      -2.62533957       0.00000000
Si      -3.55828076       0.87316990       1.51920208       0.00000000
