10
Lattice="16.28999089631971 0.0 0.0 0.0 16.28999089631971 0.0 0.0 0.0 34.31052061344573" Properties=species:S:1:pos:R:3:initial_magmoms:R:1 pbc="T T T"
Si       2.10224079      -0.93728262      -0.01104799       0.00000000
Si      -0.91725732      -1.82690136      -1.07508645       0.00000000
Si      -0.49265847       0.28098295       2.26260855       0.00000000
Si      -1.58156352       1.65207967      -0.67176606       0.00000000
Si      -1.75034421       2.14550377       1.67034001       0.00000000
Si       0.32878107      -1.89191475      -3.16223090       0.00000000
Si      -3.01821120       0.51643861      -2.11370080       0.00000000
Si      -1.92686265      -1.47727901       2.84499565       0.00000000
Si       1.55154105       0.86872615       3.30077686       0.00000000
Si       2.39075298      -2.05719309      -2.02737549       0.00000000
