10
Lattice="16.28999089631971 0.0 0.0 0.0 16.28999089631971 0.0 0.0 0.0 34.31052061344573" Properties=species:S:1:pos:R:3:initial_magmoms:R:1 pbc="T T T"
Si      -1.73441259      -0.92994723       1.28074383       0.00000000
Si       0.28013913      -1.22391657      -2.00315224       0.00000000
Si       0.29958939       2.35341630      -0.19800613       0.00000000
Si       1.68047640       0.21025503       2.00133379       0.00000000
Si       3.24939888      -0.54195201       0.28395403       0.00000000
Si       1.39911552       2.55609648       1.88594744       0.00000000
Si       1.13834520      -3.25792018      -1.34703179       0.00000000
Si      -3.58777476       0.49026384       1.40837904       0.00000000
Si       1.81724724      -0.21084147      -3.49243553       0.00000000
Si      -1.76406039      -1.81165977      -3.04132056       0.00000000
