10
Lattice="16.28999089631971 0.0 0.0 0.0 16.28999089631971 0.0 0.0 0.0 34.31052061344573" Properties=species:S:1:pos:R:3:initial_magmoms:R:1 pbc="T T T"
Si      -0.11593593      -1.05967006       2.09102154       0.00000000
Si      -0.70612263       2.24864065      -0.42421551       0.00000000
Si      -1.55605338      -1.39648210      -1.30929020       0.00000000
Si      -1.15399989       0.13686043      -3.08170406       0.00000000
Si       3.36864168       0.84596413       0.55476712       0.00000000
Si       0.70392348       0.90385228       3.37155062       0.00000000
Si       1.93337865       2.33628085       1.88731986       0.00000000
Si      -0.59880411       2.41660684      -2.77929096       0.00000000
Si       1.70849520      -2.83107724       2.00847038       0.00000000
Si       0.72886347       3.97358875       0.57192239       0.00000000
