10
Lattice="16.28999089631971 0.0 0.0 0.0 16.28999089631971 0.0 0.0 0.0 34.31052061344573" Properties=species:S:1:pos:R:3:initial_magmoms:R:1 pbc="T T T"
Si       0.65259369      -1.82470806      -1.32359769       0.00000000
Si       0.78807762      -0.00832419       2.25972646       0.00000000
Si      -0.66443652       1.73942991      -1.50681598       0.00000000
Si      -2.18602026      -0.88534521       0.43917491       0.00000000
Si       2.77794999       1.31315319       0.16489645       0.00000000
Si      -0.49932108      -1.00681974      -3.21980399       0.00000000
Si      -2.51234154       0.02396259       2.54587636       0.00000000
Si       0.25948341       3.64400784      -0.66716845       0.00000000
Si       0.32505066       1.15851222      -3.52026138       0.00000000
Si       2.64038094      -1.44200709       2.19031624       0.00000000
