10
Lattice="16.28999089631971 0.0 0.0 0.0 16.28999089631971 0.0 0.0 0.0 34.31052061344573" Properties=species:S:1:pos:R:3:initial_magmoms:R:1 pbc="T T T"
Si       1.85230332      -1.43368290      -0.06941022       0.00000000
Si      -0.78807762       0.00832419      -2.25972646       0.00000000
Si      -1.54455264      -0.93605598       1.57039341       0.00000000
Si       0.33803379       2.28545442       0.64620471       0.00000000
Si       1.98987237       1.32147738      -2.09483001       0.00000000
Si      -3.30041916       0.03228678       0.28614990       0.00000000
Si      -2.97409788      -0.87702102      -1.82055155       0.00000000
Si       2.43432873       2.78313021      -0.29966825       0.00000000
Si       3.04082172      -0.74270997      -1.99604996       0.00000000
Si      -1.18428300       3.47651406      -0.63426464       0.00000000
