10
Lattice="16.28999089631971 0.0 0.0 0.0 16.28999089631971 0.0 0.0 0.0 34.31052061344573" Properties=species:S:1:pos:R:3:initial_magmoms:R:1 pbc="T T T"
Si       1.36824597       1.34635221       1.37941065       0.00000000
Si      -1.35215145      -1.36383138       1.38023410       0.00000000
Si       1.24255233      -1.36969578      -1.50170371       0.00000000
Si      -1.45047789       1.26128583      -1.45152111       0.00000000
Si      -2.38091382      -0.76413132      -2.81839610       0.00000000
Si       2.69053785      -2.70461241       0.01178567       0.00000000
Si      -2.71324611       2.68420104       0.01229690       0.00000000
Si      -2.69641854      -2.73056238       0.02433990       0.00000000
Si       2.73554712       2.69457777       0.01958103       0.00000000
Si       0.00908982       2.70620883       2.73831389       0.00000000
