10
Lattice="16.28999089631971 0.0 0.0 0.0 16.28999089631971 0.0 0.0 0.0 34.31052061344573" Properties=species:S:1:pos:R:3:initial_magmoms:R:1 pbc="T T T"
Si      -1.26276822       1.42291521       1.46381801       0.00000000
Si       1.10690550       1.67485635      -1.32556510       0.00000000
Si       1.45047789      -1.26128583       1.45152111       0.00000000
Si      -0.93043593      -2.02541715      -1.36687499       0.00000000
Si      -2.65471614       2.53325790      -0.07749379       0.00000000
Si      -0.71752563       3.44626353      -1.24301394       0.00000000
Si       2.69303022      -2.63098161      -0.05018260       0.00000000
Si      -2.60835480       0.08754246       2.83168659       0.00000000
Si       0.09832644      -2.62511721       2.83175521       0.00000000
Si      -2.65254957      -2.85648408      -0.00070337       0.00000000
