10
Lattice="16.28999089631971 0.0 0.0 0.0 16.28999089631971 0.0 0.0 0.0 34.31052061344573" Properties=species:S:1:pos:R:3:initial_magmoms:R:1 pbc="T T T"
Si       0.35152191      -1.86380406       1.32102440       0.00000000
Si       1.24947558       1.90309554       0.51098687       0.00000000
Si      -2.15267463       0.54405342       0.88342778       0.00000000
Si       1.28560680      -0.52087275      -2.17504805       0.00000000
Si      -1.36016613       1.54219059       2.96497961       0.00000000
Si      -0.87311142      -3.49936893       0.14187408       0.00000000
Si      -2.94849000       1.84363704      -0.99353030       0.00000000
Si       0.88024644       3.33997128      -1.36981399       0.00000000
Si       0.66789000       2.67880905       2.61549245       0.00000000
Si       2.60951139      -2.45868228       1.34329194       0.00000000
