10
Lattice="16.28999089631971 0.0 0.0 0.0 16.28999089631971 0.0 0.0 0.0 34.31052061344573" Properties=species:S:1:pos:R:3:initial_magmoms:R:1 pbc="T T T"
Si      -1.36239786      -1.81986993       0.62791719       0.00000000
Si       2.15267463      -0.54405342      -0.88342778       0.00000000
Si      -0.79581537       1.29958362      -1.87695808       0.00000000
Si       0.79250850       0.99813717       2.08155183       0.00000000
Si       2.50419654      -2.40785748       0.43759662       0.00000000
Si       3.40215021       1.35904212      -0.37244091       0.00000000
Si      -1.00774827      -3.46390560      -1.01795940       0.00000000
Si      -0.89120961       2.40536511       2.84780911       0.00000000
Si      -0.58746627      -2.80039761       2.60760102       0.00000000
Si       0.63218232       3.19855779      -2.18506673       0.00000000
