10
Lattice="16.28999089631971 0.0 0.0 0.0 16.28999089631971 0.0 0.0 0.0 34.31052061344573" Properties=species:S:1:pos:R:3:initial_magmoms:R:1 pbc="T T T"
Si      -2.00078667       1.47196440       0.47252475       0.00000000
Si       1.62267948       0.86639994       1.78921715       0.00000000
Si      -0.09260865      -2.10546621      -1.46427091       0.00000000
Si      -0.88935255      -1.70474850       1.84636821       0.00000000
Si       0.35679987       1.77301989      -2.19378160       0.00000000
Si      -2.55296880      -2.97400014       0.65232403       0.00000000
Si       0.38012715       2.23609572       3.29092085       0.00000000
Si       3.40348599       2.03299200       0.66606369       0.00000000
Si      -2.31629139      -0.49446666       3.31526075       0.00000000
Si      -1.07035074       3.49738155       1.83939974       0.00000000
