10
Lattice="16.28999089631971 0.0 0.0 0.0 16.28999089631971 0.0 0.0 0.0 34.31052061344573" Properties=species:S:1:pos:R:3:initial_magmoms:R:1 pbc="T T T"
Si      -1.23695655      -1.19535368      -1.57505419       0.00000000
Si      -1.38729291       1.30619247       1.37042815       0.00000000
Si       1.35596657      -1.42509872       1.34236899       0.00000000
Si       0.88829696       1.87859049      -1.45023245       0.00000000
Si      -2.56129692      -2.58033178       0.00927757       0.00000000
Si       2.65199897       2.65137180       0.03232396       0.00000000
Si      -2.73535557       2.59958589      -0.09008575       0.00000000
Si      -0.00485605       0.18175730      -3.80287185       0.00000000
Si      -0.01978746       2.66699391       2.73161990       0.00000000
Si       2.69963093      -0.05187876       2.73041903       0.00000000
