10
Lattice="16.28999089631971 0.0 0.0 0.0 16.28999089631971 0.0 0.0 0.0 34.31052061344573" Properties=species:S:1:pos:R:3:initial_magmoms:R:1 pbc="T T T"
Si       0.33256035      -2.22506739      -0.67890265       0.00000000
Si       1.34087877       0.00177561       1.95439697       0.00000000
Si      -2.34046575       0.47827440      -0.37594058       0.00000000
Si       1.10744307       1.25907039      -1.76438520       0.00000000
Si      -2.22571899      -0.21918195      -2.58142208       0.00000000
Si      -0.04365720      -0.02761155      -3.46330589       0.00000000
Si       2.46278736       2.50066161      -0.17018028       0.00000000
Si       0.37789542       2.05827408       2.83470249       0.00000000
Si       3.37224177       0.64614285       0.91290053       0.00000000
Si      -1.71333333      -3.30910173      -0.11912619       0.00000000
