10
Lattice="16.28999089631971 0.0 0.0 0.0 16.28999089631971 0.0 0.0 0.0 34.31052061344573" Properties=species:S:1:pos:R:3:initial_magmoms:R:1 pbc="T T T"
Si       0.40205349       1.53334253      -1.77241386       0.00000000
Si       0.96298335      -2.05649847      -0.88030552       0.00000000
Si      -2.35094022       0.38978712       0.56756495       0.00000000
Si       1.55605338       1.39648210       1.30929020       0.00000000
Si      -0.37789542      -2.05827408      -2.83470249       0.00000000
Si       2.08489194       0.44238753      -3.00488276       0.00000000
Si       1.44011745       0.33681204       3.40031174       0.00000000
Si       2.99434635      -1.41213123      -1.92180195       0.00000000
Si       0.84993075       3.64512275       0.88507468       0.00000000
Si      -1.43878167       1.89231060      -3.18515034       0.00000000
