10
Lattice="16.28999089631971 0.0 0.0 0.0 16.28999089631971 0.0 0.0 0.0 34.31052061344573" Properties=species:S:1:pos:R:3:initial_magmoms:R:1 pbc="T T T"
Si      -1.15724160       1.99179459      -0.43821421       0.00000000
Si       0.63030897      -1.19705436      -1.92331162       0.00000000
Si      -1.53710811      -1.01307510       1.48928329       0.00000000
Si       1.81739385       0.47763909       1.46053106       0.00000000
Si      -0.98640837      -2.81908387      -1.82254156       0.00000000
Si      -0.32913945       3.25523070       1.36778967       0.00000000
Si       1.97648199       2.81382057       1.17575358       0.00000000
Si      -0.67890204      -3.04707871       2.14540374       0.00000000
Si      -0.69796134       2.91920058      -2.51650654       0.00000000
Si      -1.81724724       0.21084147       3.49243553       0.00000000
