10
Lattice="16.28999089631971 0.0 0.0 0.0 16.28999089631971 0.0 0.0 0.0 34.31052061344573" Properties=species:S:1:pos:R:3:initial_magmoms:R:1 pbc="T T T"
Si      -0.38118600      -2.32368379      -0.05990620       0.00000000
Si       2.28856581      -0.20849571       0.52659816       0.00000000
Si      -1.56892248       0.75220704       1.71737976       0.00000000
Si       0.38524221       0.80874963      -2.31585850       0.00000000
Si      -3.24939888       0.54195201      -0.28395403       0.00000000
Si       2.84434803       2.07992349       0.65193457       0.00000000
Si      -0.16513173       0.11635947       3.62182058       0.00000000
Si       3.06848214      -1.56983309      -1.30410931       0.00000000
Si      -2.11105368      -2.71596817      -1.63098582       0.00000000
Si      -2.96925975      -0.68196456      -2.28710627       0.00000000
