10
Lattice="16.28999089631971 0.0 0.0 0.0 16.28999089631971 0.0 0.0 0.0 34.31052061344573" Properties=species:S:1:pos:R:3:initial_magmoms:R:1 pbc="T T T"
Si       0.85123395       2.07499739      -0.70902730       0.00000000
Si       1.34936586      -1.24375520       1.50249285       0.00000000
Si       0.49565583      -1.12571915      -2.11696030       0.00000000
Si      -1.43526303       1.49031671       1.33255274       0.00000000
Si       2.80578960      -1.43829038      -1.47264268       0.00000000
Si      -3.36864168      -0.84596413      -0.55476712       0.00000000
Si      -0.55255680       2.71084496      -2.61346813       0.00000000
Si      -2.66471820       0.05788814       2.81678350       0.00000000
Si       0.03979647      -2.56668239       2.91813341       0.00000000
Si       2.46803274      -3.03018176       0.24106585       0.00000000
