10
Lattice="16.28999089631971 0.0 0.0 0.0 16.28999089631971 0.0 0.0 0.0 34.31052061344573" Properties=species:S:1:pos:R:3:initial_magmoms:R:1 pbc="T T T"
Si       1.34921925       1.33271748       1.37430867       0.00000000
Si       1.35327546      -1.35379674      -1.35423701       0.00000000
Si      -1.36063854       1.35801585      -1.35272734       0.00000000
Si      -1.35143469      -1.34908893       1.38134233       0.00000000
Si      -0.13528845       2.58530445       2.71042971       0.00000000
Si       2.70837540      -2.71238274       0.00614159       0.00000000
Si       2.71137276       0.00164529      -2.71022385       0.00000000
Si      -0.00304623      -2.71296918      -2.70977781       0.00000000
Si      -0.00307881       2.71717200      -2.71022385       0.00000000
Si      -2.71849149       0.00154755      -2.71005230       0.00000000
