10
Lattice="16.28999089631971 0.0 0.0 0.0 16.28999089631971 0.0 0.0 0.0 34.31052061344573" Properties=species:S:1:pos:R:3:initial_magmoms:R:1 pbc="T T T"
Si       1.36423863       1.33524243      -1.36744656       0.00000000
Si       1.22922711      -1.50737886       1.33931192       0.00000000
Si      -1.35547461      -1.37700999      -1.36415275       0.00000000
Si      -1.32675534       1.41353217       1.38820444       0.00000000
Si      -2.08143846      -0.39674295       2.61936954       0.00000000
Si      -0.59057766      -2.29933350       2.76735090       0.00000000
Si       2.70270648       2.69938332       0.00940109       0.00000000
Si       0.00405621       2.69511534      -2.72298737       0.00000000
Si      -2.71104696      -0.01861947      -2.72353634       0.00000000
Si       2.71798650      -0.01863576      -2.72497738       0.00000000
