10
Lattice="16.28999089631971 0.0 0.0 0.0 16.28999089631971 0.0 0.0 0.0 34.31052061344573" Properties=species:S:1:pos:R:3:initial_magmoms:R:1 pbc="T T T"
Si      -2.25798948       0.59487822      -0.02226754       0.00000000
Si       0.27580599      -1.10843676      -2.07163608       0.00000000
Si       1.26869778       2.01101679       0.33964003       0.00000000
Si       0.09975996      -1.79673813       1.59509699       0.00000000
Si       1.04425416       0.78729570      -3.25682506       0.00000000
Si      -2.21462550      -2.04323841       2.04737853       0.00000000
Si      -2.98985031       0.18464715       2.15943675       0.00000000
Si       1.63468521      -2.95402860      -1.73954437       0.00000000
Si      -3.48262281      -1.04068665      -1.20141786       0.00000000
Si      -2.60951139       2.45868228      -1.34329194       0.00000000
