10
Lattice="16.28999089631971 0.0 0.0 0.0 16.28999089631971 0.0 0.0 0.0 34.31052061344573" Properties=species:S:1:pos:R:3:initial_magmoms:R:1 pbc="T T T"
Si       0.72062073       0.90603351      -2.16499506       0.00000000
Si      -0.82034811      -2.22658236       0.70501297       0.00000000
Si       2.15091531       0.47853504       1.19167367       0.00000000
Si      -1.22570847       1.63426167       1.51024703       0.00000000
Si      -1.87760169      -1.67371605      -2.26229975       0.00000000
Si       2.41074081       2.16658629      -1.10212316       0.00000000
Si      -0.85647933       0.19738593       3.39104789       0.00000000
Si       1.46170170      -0.08198757       3.44261663       0.00000000
Si       1.54781064      -3.37709619       0.96652791       0.00000000
Si       2.09986245       3.03751485       1.05237288       0.00000000
