10
Lattice="16.28999089631971 0.0 0.0 0.0 16.28999089631971 0.0 0.0 0.0 34.31052061344573" Properties=species:S:1:pos:R:3:initial_magmoms:R:1 pbc="T T T"
Si       1.55931138       0.69584364      -1.61630091       0.00000000
Si      -1.97724762       0.22980303      -1.25909388       0.00000000
Si       0.21292659       1.77230313       1.54682207       0.00000000
Si       1.01859741      -2.16873657       0.05712705       0.00000000
Si       0.92251899      -0.82528398      -3.31203072       0.00000000
Si       3.50889858       0.17725149      -0.45070325       0.00000000
Si      -2.02372299       2.22988923       2.11037268       0.00000000
Si      -1.39566204      -0.54591048      -3.36359946       0.00000000
Si       1.44726876       3.02648931      -1.78212375       0.00000000
Si      -2.25018657       2.48086926      -1.80627837       0.00000000
