10
Lattice="16.28999089631971 0.0 0.0 0.0 16.28999089631971 0.0 0.0 0.0 34.31052061344573" Properties=species:S:1:pos:R:3:initial_magmoms:R:1 pbc="T T T"
Si       1.06763031      -0.72246150       1.92557611       0.00000000
Si      -2.23664958       0.45758610       0.56355062       0.00000000
Si      -0.21292659      -1.77230313      -1.54682207       0.00000000
Si       0.69395400       1.98185184      -1.15691709       0.00000000
Si      -2.75162535       1.82847661      -1.33677294       0.00000000
Si       1.34638479      -1.07645949      -3.16312297       0.00000000
Si       1.23434217       1.25418618      -3.32894581       0.00000000
Si       1.30647429       0.95369805       3.50561078       0.00000000
Si      -0.05121576      -2.55665034       2.89272161       0.00000000
Si      -2.19017421      -1.54250010      -2.80591594       0.00000000
