10
Lattice="16.28999089631971 0.0 0.0 0.0 16.28999089631971 0.0 0.0 0.0 34.31052061344573" Properties=species:S:1:pos:R:3:initial_magmoms:R:1 pbc="T T T"
Si       1.11884607       1.83418884      -0.96714550       0.00000000
Si       0.55208439       0.50842719       2.23924307       0.00000000
Si      -2.38503519      -0.01249443       0.08406082       0.00000000
Si       1.16559837      -1.97708472      -0.81199323       0.00000000
Si      -2.64963366      -2.30470920       0.65721839       0.00000000
Si       3.18006864      -0.87047244      -1.55515953       0.00000000
Si       0.74497428      -1.51179345       3.34870868       0.00000000
Si       1.35769005       3.51034839       0.61288917       0.00000000
Si       3.42453267       1.43037603      -0.96536135       0.00000000
Si       0.05121576       2.55665034      -2.89272161       0.00000000
