10
Lattice="16.28999089631971 0.0 0.0 0.0 16.28999089631971 0.0 0.0 0.0 34.31052061344573" Properties=species:S:1:pos:R:3:initial_magmoms:R:1 pbc="T T T"
Si      -0.26459847      -2.29221477       0.57315757       0.00000000
Si      -0.84352878       1.27237932       1.83036437       0.00000000
Si       2.38503519       0.01249443      -0.08406082       0.00000000
Si      -1.01595843       1.05134031      -1.88896677       0.00000000
Si      -1.23497748      -0.87255756      -3.24852191       0.00000000
Si      -1.75298319       3.12689808       0.74728356       0.00000000
Si       2.93711958       0.52092162       2.15518225       0.00000000
Si       1.01525796       1.50257331       3.22484763       0.00000000
Si      -3.10832748       1.88530686      -0.84692136       0.00000000
Si       1.25538885      -2.74261698       2.38694994       0.00000000
