10
Lattice="16.28999089631971 0.0 0.0 0.0 16.28999089631971 0.0 0.0 0.0 34.31052061344573" Properties=species:S:1:pos:R:3:initial_magmoms:R:1 pbc="T T T"
Si      -1.30956939      -1.32292719       1.41564056       0.00000000
Si      -1.34936586       1.24375520      -1.50249285       0.00000000
Si       1.54637712       1.37506238       1.24766988       0.00000000
Si       1.11866688      -1.78642656      -1.26142700       0.00000000
Si       1.45642374      -0.19453518      -2.97513553       0.00000000
Si      -0.85371003       0.11803606      -3.61945315       0.00000000
Si      -2.64924270       0.05359410       2.75774193       0.00000000
Si       0.06960717      -2.67485058       2.74787765       0.00000000
Si      -3.00951234      -2.43328617      -0.04878959       0.00000000
Si       0.07149681       2.75417378       2.72675265       0.00000000
