10
Lattice="16.28999089631971 0.0 0.0 0.0 16.28999089631971 0.0 0.0 0.0 34.31052061344573" Properties=species:S:1:pos:R:3:initial_magmoms:R:1 pbc="T T T"
Si      -0.02316438       0.53660563       2.32025025       0.00000000
Si       0.50648868       1.76052709      -1.54191566       0.00000000
Si      -1.59682725      -1.61620162      -0.75932656       0.00000000
Si       1.71470169      -1.66671691      -0.29095338       0.00000000
Si       1.70719200       1.84316626       1.32860703       0.00000000
Si       1.73211570       0.17222277      -2.85995504       0.00000000
Si      -1.71023823      -0.88393075       3.16082417       0.00000000
Si       2.79049396      -1.78656244       1.78373634       0.00000000
Si       2.12291280      -0.00150194       3.19674730       0.00000000
Si      -3.81410802      -0.82473305      -0.38201355       0.00000000
