10
Lattice="16.28999089631971 0.0 0.0 0.0 16.28999089631971 0.0 0.0 0.0 34.31052061344573" Properties=species:S:1:pos:R:3:initial_magmoms:R:1 pbc="T T T"
Si       0.21287772      -0.96565491      -2.15710364       0.00000000
Si       0.46612206      -1.66561829       1.63867138       0.00000000
Si      -2.21711787       0.71296443       0.62692218       0.00000000
Si       1.84384881       1.56481740       0.32859204       0.00000000
Si      -0.31379427      -0.30428091       3.46937885       0.00000000
Si      -2.05802973       3.04914591       0.34214470       0.00000000
Si       2.78164782      -2.15152456       1.35461442       0.00000000
Si      -1.57534074      -2.43038329      -2.47629459       0.00000000
Si       3.68757612       0.57021516      -0.82770746       0.00000000
Si      -2.60236008      -0.09578520       2.94278069       0.00000000
