10
Lattice="16.28999089631971 0.0 0.0 0.0 16.28999089631971 0.0 0.0 0.0 34.31052061344573" Properties=species:S:1:pos:R:3:initial_magmoms:R:1 pbc="T T T"
Si      -1.72252089       0.82445319       1.34336056       0.00000000
Si      -0.22025709       1.36355445      -1.92729991       0.00000000
Si       1.02895785      -1.89350073       1.31621063       0.00000000
Si       1.96428078       1.78017120       0.17425637       0.00000000
Si      -0.34171533       2.17246698       2.71987197       0.00000000
Si       2.39441823      -0.56286837       2.71403918       0.00000000
Si      -1.38969990       3.32596188      -1.29328227       0.00000000
Si      -3.17050641       2.15936982      -0.17012881       0.00000000
Si       1.01981916       3.53450646       1.37240101       0.00000000
Si       3.75901524       0.77771718       1.34007361       0.00000000
