10
Lattice="16.28999089631971 0.0 0.0 0.0 16.28999089631971 0.0 0.0 0.0 34.31052061344573" Properties=species:S:1:pos:R:3:initial_magmoms:R:1 pbc="T T T"
Si      -1.35809730      -1.35544203       1.35598684       0.00000000
Si      -1.35752715       1.35790182      -1.35687892       0.00000000
Si       1.35703845       1.35782037       1.35763375       0.00000000
Si       1.35881406      -1.35718506      -1.35650150       0.00000000
Si      -2.71137276      -0.00164529       2.71022385       0.00000000
Si       2.71438651       0.00097740      -2.71221386       0.00000000
Si      -2.71472850       0.00118917      -2.71241972       0.00000000
Si       2.71264338       0.00182448       2.71598802       0.00000000
Si      -2.71441899      -2.71461447       0.00044604       0.00000000
Si       2.71508233      -2.71414206      -0.00027448       0.00000000
