10
Lattice="16.28999089631971 0.0 0.0 0.0 16.28999089631971 0.0 0.0 0.0 34.31052061344573" Properties=species:S:1:pos:R:3:initial_magmoms:R:1 pbc="T T T"
Si       1.74112407       0.91015488      -1.37060313       0.00000000
Si      -0.89194266      -1.81276749      -1.30884416       0.00000000
Si      -1.83985776       1.68554259      -0.30508932       0.00000000
Si       0.80280378       0.38437884       2.44654735       0.00000000
Si       1.41949431      -2.80847745       1.54925811       0.00000000
Si      -0.68867604       2.27615283       2.69845533       0.00000000
Si      -2.25719127      -0.44189883      -2.78251616       0.00000000
Si       0.46884249       2.28959208      -2.80536698       0.00000000
Si       2.60955930       2.75035473      -0.08611945       0.00000000
Si      -2.87226909       2.02821903       1.83132506       0.00000000
