10
Lattice="16.28999089631971 0.0 0.0 0.0 16.28999089631971 0.0 0.0 0.0 34.31052061344573" Properties=species:S:1:pos:R:3:initial_magmoms:R:1 pbc="T T T"
Si       1.09974997       1.73250666      -1.08472772       0.00000000
Si       0.96785147      -0.85962330       1.96503323       0.00000000
Si      -2.21768802      -0.14959107      -0.81604188       0.00000000
Si       0.66404085       1.23799113      -3.46629090       0.00000000
Si      -3.11583717      -2.20732758      -0.03314398       0.00000000
Si      -0.83201175      -1.76788854       3.28119381       0.00000000
Si       2.02033371       0.88679502       3.14230132       0.00000000
Si      -0.24382872       3.72545784      -1.52537798       0.00000000
Si      -2.44949472      -0.54540549      -3.18758639       0.00000000
Si      -3.48565275       1.98490392      -0.85694004       0.00000000
