10
Lattice="16.28999089631971 0.0 0.0 0.0 16.28999089631971 0.0 0.0 0.0 34.31052061344573" Properties=species:S:1:pos:R:3:initial_magmoms:R:1 pbc="T T T"
Si       0.37164006       1.75720230       1.46921162       0.00000000
Si      -1.32191721      -1.78338033       0.82736436       0.00000000
Si       2.19485988      -0.77059845      -0.45533517       0.00000000
Si      -1.10206737      -0.00521280      -2.13449299       0.00000000
Si      -1.62417816      -2.35186875      -1.42690673       0.00000000
Si      -1.30750056       1.69784154       3.04337919       0.00000000
Si       2.01592564       1.06113060       2.96672944       0.00000000
Si      -0.43205967      -2.28623634       2.96326408       0.00000000
Si       1.13160181       3.64444767       0.33487087       0.00000000
Si       2.97649970      -2.10400011       1.29944307       0.00000000
