10
Lattice="16.28999089631971 0.0 0.0 0.0 16.28999089631971 0.0 0.0 0.0 34.31052061344573" Properties=species:S:1:pos:R:3:initial_magmoms:R:1 pbc="T T T"
Si      -0.88985754       0.50285601      -2.13589972       0.00000000
Si      -1.07487936       1.84803534       1.06345518       0.00000000
Si       2.25443893       0.93861351       0.20823067       0.00000000
Si      -0.85744044      -2.08094976       1.05230426       0.00000000
Si      -3.15126792       0.91015488      -1.66083599       0.00000000
Si       0.43205967       2.28623634      -2.96326408       0.00000000
Si      -3.36574206       1.63808982       0.58794541       0.00000000
Si       3.40855937       0.18223623      -1.66382101       0.00000000
Si       3.18774842      -0.09933642       2.07932164       0.00000000
Si       2.81812017      -2.12905413      -1.66087030       0.00000000
