10
Lattice="16.28999089631971 0.0 0.0 0.0 16.28999089631971 0.0 0.0 0.0 34.31052061344573" Properties=species:S:1:pos:R:3:initial_magmoms:R:1 pbc="T T T"
Si      -0.32677740      -0.58715676      -2.25931473       0.00000000
Si      -1.74796587       1.54956996       0.44857600       0.00000000
Si       2.27522430      -0.00474039       0.78344687       0.00000000
Si      -0.96659973      -1.74529431       1.45188480       0.00000000
Si      -2.78127315      -1.91360259      -0.29270321       0.00000000
Si       1.92176388      -1.04246226      -2.72820257       0.00000000
Si      -1.34312679      -2.66119956      -2.01893509       0.00000000
Si      -3.62258649       0.30625200      -0.42912192       0.00000000
Si      -0.91492785      -0.80286894       3.77206643       0.00000000
Si       2.33271171       1.30684896      -3.05504477       0.00000000
