10
Lattice="16.28999089631971 0.0 0.0 0.0 16.28999089631971 0.0 0.0 0.0 34.31052061344573" Properties=species:S:1:pos:R:3:initial_magmoms:R:1 pbc="T T T"
Si      -1.52127423       1.17180486       1.36383366       0.00000000
Si       1.19314476      -1.54779435       1.35138237       0.00000000
Si      -1.28374974      -1.41319008      -1.46722989       0.00000000
Si       1.32434037       1.38497810      -1.58433176       0.00000000
Si       2.23298663      -0.59528547      -2.45461860       0.00000000
Si       2.56129692       2.58033178      -0.00927757       0.00000000
Si      -2.75651235       2.49514649      -0.13906748       0.00000000
Si      -0.17376543       2.53209872       2.72615080       0.00000000
Si       2.54563734      -0.18930609       2.71963180       0.00000000
Si       0.24254181      -1.92572235      -3.31227916       0.00000000
