10
Lattice="16.28999089631971 0.0 0.0 0.0 16.28999089631971 0.0 0.0 0.0 34.31052061344573" Properties=species:S:1:pos:R:3:initial_magmoms:R:1 pbc="T T T"
Si      -1.35806472      -1.35628911      -1.35732495       0.00000000
Si       1.36005210      -1.35791811       1.35540356       0.00000000
Si       1.35731897       1.35944937      -1.35725633       0.00000000
Si      -1.35772263       1.36018242       1.36209412       0.00000000
Si       2.71218956      -2.71244790      -0.00116656       0.00000000
Si       0.00030951       2.71169856       2.71526750       0.00000000
Si      -0.00114030      -2.71254564      -2.71495870       0.00000000
Si       0.00562005      -2.72328075       2.70432244       0.00000000
Si       2.71476501       0.00200367      -2.71458129       0.00000000
Si      -2.71616202      -2.71344159      -0.00099501       0.00000000
