10
Lattice="16.28999089631971 0.0 0.0 0.0 16.28999089631971 0.0 0.0 0.0 34.31052061344573" Properties=species:S:1:pos:R:3:initial_magmoms:R:1 pbc="T T T"
Si       1.38218111      -1.31549895      -1.37746524       0.00000000
Si      -1.33885881       1.40186853      -1.37921508       0.00000000
Si       1.77077906       1.03925313       1.21919072       0.00000000
Si      -0.93410118      -1.82990457       1.26104958       0.00000000
Si       2.71129850      -2.57831604       0.16716095       0.00000000
Si       3.41470070      -0.73837683       1.51340360       0.00000000
Si      -2.55901239       2.82730692      -0.00977850       0.00000000
Si      -2.68824096      -2.70630657      -0.04000609       0.00000000
Si       0.02088378      -2.66774814      -2.73907901       0.00000000
Si      -2.69689095       0.05035239      -2.73238846       0.00000000
