10
Lattice="16.28999089631971 0.0 0.0 0.0 16.28999089631971 0.0 0.0 0.0 34.31052061344573" Properties=species:S:1:pos:R:3:initial_magmoms:R:1 pbc="T T T"
Si      -0.69605541      -1.33789770      -1.80178369       0.00000000
Si       2.30439547      -0.56584944      -0.00027448       0.00000000
Si      -0.61871049      -0.86912037       2.12310189       0.00000000
Si       0.32882994       2.21542927      -0.81563015       0.00000000
Si       1.92634693       2.92472519       0.72134479       0.00000000
Si      -0.86317452      -3.16996884       1.53330371       0.00000000
Si      -2.92439709      -0.46530756       2.12131774       0.00000000
Si      -0.89549388      -3.47394024      -0.81844362       0.00000000
Si       0.98308521      -1.27853694      -3.37595125       0.00000000
Si       2.62737079      -1.97460864      -1.87843343       0.00000000
