10
Lattice="16.28999089631971 0.0 0.0 0.0 16.28999089631971 0.0 0.0 0.0 34.31052061344573" Properties=species:S:1:pos:R:3:initial_magmoms:R:1 pbc="T T T"
Si       0.89127477      -2.16642339       0.10646560       0.00000000
Si      -0.22317300       0.76331682      -2.26624546       0.00000000
Si      -1.52629155       0.51253227       1.84504928       0.00000000
Si       1.99044482       1.33043688       0.85766056       0.00000000
Si       3.28198607      -1.57817520      -0.40983940       0.00000000
Si      -3.42676440       1.25937990       0.66411481       0.00000000
Si       1.30447781       2.53576656      -2.37617643       0.00000000
Si      -0.24254181       1.92572235       3.31227916       0.00000000
Si       1.08179856       3.31070045       1.72794740       0.00000000
Si       0.93854835      -0.79307865      -3.69860757       0.00000000
