10
Lattice="16.28999089631971 0.0 0.0 0.0 16.28999089631971 0.0 0.0 0.0 34.31052061344573" Properties=species:S:1:pos:R:3:initial_magmoms:R:1 pbc="T T T"
Si       0.29712960       2.29618953       0.30779985       0.00000000
Si       1.80219528      -0.56102760      -1.37664179       0.00000000
Si      -1.92671441      -0.48984030      -1.22958681       0.00000000
Si      -0.01984122      -1.21153617       2.01176419       0.00000000
Si      -1.22761114       2.98436058      -1.32263700       0.00000000
Si      -1.96521094      -2.80471935      -1.19565369       0.00000000
Si       3.13574355       1.35682668      -1.45497275       0.00000000
Si      -2.28638523      -1.49175675       2.51760448       0.00000000
Si      -3.77044172       0.50476194      -0.07328731       0.00000000
Si       1.23616665      -0.12362481       3.66532634       0.00000000
