10
Lattice="16.28999089631971 0.0 0.0 0.0 16.28999089631971 0.0 0.0 0.0 34.31052061344573" Properties=species:S:1:pos:R:3:initial_magmoms:R:1 pbc="T T T"
Si       0.32632128      -0.90930780      -2.10670145       0.00000000
Si      -2.22957532      -0.49801788       0.49963008       0.00000000
Si       1.75586652      -0.96834276       1.28424350       0.00000000
Si       0.07024248       2.36019294      -0.36063808       0.00000000
Si       3.30041916      -0.03228678      -0.28614990       0.00000000
Si      -1.79386620      -0.00350235       2.88119327       0.00000000
Si       0.64291743       0.30283110       3.39914518       0.00000000
Si       2.51234154      -0.02396259      -2.54587636       0.00000000
Si      -1.26939662       3.17133720       1.47319165       0.00000000
Si      -3.49090532       0.95172696      -1.07110643       0.00000000
