10
Lattice="16.28999089631971 0.0 0.0 0.0 16.28999089631971 0.0 0.0 0.0 34.31052061344573" Properties=species:S:1:pos:R:3:initial_magmoms:R:1 pbc="T T T"
Si       0.31552101      -0.37449081       2.38317578       0.00000000
Si      -2.43678363      -0.30633345      -0.51795191       0.00000000
Si       1.12272309       2.20455828       0.59127353       0.00000000
Si       1.11294909      -1.27117386      -2.11490167       0.00000000
Si      -0.64291743      -0.30283110      -3.39914518       0.00000000
Si      -0.66995883       3.79944702       0.22521438       0.00000000
Si      -1.91231405       2.86850610      -1.92595353       0.00000000
Si       2.19357882      -2.15609553       2.65029538       0.00000000
Si      -3.53653361      -2.03884011       0.56677581       0.00000000
Si      -2.87249275      -0.80084898      -2.89951510       0.00000000
