10
Lattice="16.28999089631971 0.0 0.0 0.0 16.28999089631971 0.0 0.0 0.0 34.31052061344573" Properties=species:S:1:pos:R:3:initial_magmoms:R:1 pbc="T T T"
Si       1.40660892      -1.13536413       1.47656437       0.00000000
Si       1.72211364       0.83106693      -1.36617162       0.00000000
Si      -0.70812630      -1.83329289      -1.45349195       0.00000000
Si      -1.32168915       1.57206645       1.44853266       0.00000000
Si       0.09907578       0.74575620      -3.24539420       0.00000000
Si      -2.53984721      -2.61084717      -0.12759060       0.00000000
Si       2.83354776      -2.34564597       0.00767184       0.00000000
Si       0.04012227      -2.48617980       2.83345358       0.00000000
Si      -2.67017209       0.22988448       2.82902752       0.00000000
Si       2.65254957       2.85648408       0.00070337       0.00000000
