10
Lattice="16.28999089631971 0.0 0.0 0.0 16.28999089631971 0.0 0.0 0.0 34.31052061344573" Properties=species:S:1:pos:R:3:initial_magmoms:R:1 pbc="T T T"
Si      -1.35601055      -1.35659098       1.35701616       0.00000000
Si       1.35742941      -1.35779644      -1.35705047       0.00000000
Si       1.35757602       1.35847539       1.35746220       0.00000000
Si      -1.35866582       1.35821801      -1.35674167       0.00000000
Si       0.00017919       2.71301658       2.71331180       0.00000000
Si      -0.00151497      -2.71380862       2.71327749       0.00000000
Si       2.71357191       0.00030202      -2.71454698       0.00000000
Si       2.71472850      -2.71397152       0.00003431       0.00000000
Si      -0.00074934      -2.71478602      -2.71458129       0.00000000
Si      -2.71228539      -0.00356517       2.71722320       0.00000000
