10
Lattice="16.28999089631971 0.0 0.0 0.0 16.28999089631971 0.0 0.0 0.0 34.31052061344573" Properties=species:S:1:pos:R:3:initial_magmoms:R:1 pbc="T T T"
Si       1.35537091       1.35782037       1.35650150       0.00000000
Si      -1.35795895       1.35772263      -1.35729064       0.00000000
Si      -1.35804040      -1.35775521       1.35794254       0.00000000
Si       1.35797405      -1.35956340      -1.35691323       0.00000000
Si       0.00323345       2.71235016       2.71307162       0.00000000
Si      -0.00069234      -2.71459818      -2.71190506       0.00000000
Si       2.71482517      -0.00219915      -2.71382646       0.00000000
Si      -2.71488337       2.71397916       0.00034311       0.00000000
Si       2.71492291       2.71469592       0.00017155       0.00000000
Si       2.71454824      -2.71529865      -0.00030879       0.00000000
