10
Lattice="16.28999089631971 0.0 0.0 0.0 16.28999089631971 0.0 0.0 0.0 34.31052061344573" Properties=species:S:1:pos:R:3:initial_magmoms:R:1 pbc="T T T"
Si      -1.35685111      -1.35736425       1.35691323       0.00000000
Si       1.35824391      -1.35624024      -1.35804548       0.00000000
Si       1.35806472       1.35951453       1.35646719       0.00000000
Si      -1.35205045       1.35982404      -1.36247153       0.00000000
Si      -0.00293220      -2.70897813      -2.71396370       0.00000000
Si      -0.00027693      -2.71309950       2.71351766       0.00000000
Si       2.71285515      -2.71428867       0.00102932       0.00000000
Si      -2.69676782      -0.02621061      -2.73077586       0.00000000
Si      -2.71551751      -2.71239903       0.00192139       0.00000000
Si      -2.71482517       0.00219915       2.71382646       0.00000000
