10
Lattice="16.28999089631971 0.0 0.0 0.0 16.28999089631971 0.0 0.0 0.0 34.31052061344573" Properties=species:S:1:pos:R:3:initial_magmoms:R:1 pbc="T T T"
Si      -1.35424769       1.35472527      -1.35821703       0.00000000
Si      -1.35794552      -1.35731538       1.35869738       0.00000000
Si       1.35795979       1.35723393       1.35907479       0.00000000
Si       1.36278814      -1.35741312      -1.36030997       0.00000000
Si      -2.72112530       0.01334151      -2.69628691       0.00000000
Si      -2.71584734       2.71352304       0.00085776       0.00000000
Si       2.71498520       2.71441899       0.00150966       0.00000000
Si      -2.71441382      -2.71534752      -0.00102932       0.00000000
Si       0.00001343      -2.71503801       2.71598802       0.00000000
Si       0.00051374       2.71467963       2.71639975       0.00000000
