10
Lattice="16.28999089631971 0.0 0.0 0.0 16.28999089631971 0.0 0.0 0.0 34.31052061344573" Properties=species:S:1:pos:R:3:initial_magmoms:R:1 pbc="T T T"
Si      -0.47573805       1.28936979       1.82676176       0.00000000
Si      -0.70318717      -2.15487378       0.39693863       0.00000000
Si      -0.93330949       1.03794993      -1.87109098       0.00000000
Si       2.34313731      -0.21826971       0.08138460       0.00000000
Si       0.11302002      -3.01091328      -1.63259841       0.00000000
Si       0.82155357      -2.84304483       2.02737549       0.00000000
Si       0.05308911       3.51637569       1.31114297       0.00000000
Si       0.22081095       0.28157265      -3.74314265       0.00000000
Si       3.26705724       1.68630822       0.92103213       0.00000000
Si      -3.18774842       0.09933642      -2.07932164       0.00000000
