10
Lattice="16.28999089631971 0.0 0.0 0.0 16.28999089631971 0.0 0.0 0.0 34.31052061344573" Properties=species:S:1:pos:R:3:initial_magmoms:R:1 pbc="T T T"
Si      -1.04121282       0.86291388      -1.94667710       0.00000000
Si       2.04589368       1.08403434      -0.55977646       0.00000000
Si      -0.07024248      -2.36019294       0.36063808       0.00000000
Si      -1.33963910       0.81114426       1.83382973       0.00000000
Si      -3.15019997       0.94084524      -1.03731055       0.00000000
Si      -2.44072160       2.52718173       0.69622947       0.00000000
Si       3.56821047      -0.10702530       0.72069289       0.00000000
Si       0.25607880      -3.26950074      -1.74606337       0.00000000
Si       1.71333333       3.30910173       0.11912619       0.00000000
Si      -2.29981780      -2.85821082       0.86026816       0.00000000
