10
Lattice="16.28999089631971 0.0 0.0 0.0 16.28999089631971 0.0 0.0 0.0 34.31052061344573" Properties=species:S:1:pos:R:3:initial_magmoms:R:1 pbc="T T T"
Si       1.35697655      -1.35757602       1.35708478       0.00000000
Si       1.35702542       1.35718506      -1.35756513       0.00000000
Si      -1.35744604       1.35744570       1.35732495       0.00000000
Si      -1.35795979      -1.35723393      -1.35907479       0.00000000
Si      -0.00257545      -2.71445157       2.71341473       0.00000000
Si       2.71385210       0.00140094       2.71451267       0.00000000
Si       0.00250377       2.71070487      -2.71811527       0.00000000
Si      -2.71476501      -0.00200367       2.71458129       0.00000000
Si       2.71520417       2.71417464      -0.00003431       0.00000000
Si       0.00176421       2.71538010       2.71403232       0.00000000
