10
Lattice="16.28999089631971 0.0 0.0 0.0 16.28999089631971 0.0 0.0 0.0 34.281931910070035" Properties=species:S:1:pos:R:3:initial_magmoms:R:1 pbc="T T T"
Si       1.48317192       1.33108848       1.22163630       0.00000000
Si      -0.83799018       1.35309627      -1.72382235       0.00000000
Si      -1.37067481      -1.57747799       1.12390531       0.00000000
Si       0.06353100       0.07941375      -3.48766302       0.00000000
Si      -0.01236411       2.50191594       2.66335347       0.00000000
Si      -0.11430693      -2.20743672      -3.00548738       0.00000000
Si       2.70171279      -0.21450672       2.64107363       0.00000000
Si      -2.73873086      -0.22278204       2.64268831       0.00000000
Si      -3.28537439       1.04205501      -1.86845791       0.00000000
Si      -0.02521692      -2.92918109       2.63974006       0.00000000
