10
Lattice="16.28999089631971 0.0 0.0 0.0 16.28999089631971 0.0 0.0 0.0 34.281931910070035" Properties=species:S:1:pos:R:3:initial_magmoms:R:1 pbc="T T T"
Si      -1.35799956       1.35639011       1.36171338       0.00000000
Si       1.35910728      -1.35817121       1.36178194       0.00000000
Si      -1.36339155      -1.35356016      -1.39002684       0.00000000
Si       1.36353816       1.36111421      -1.38869327       0.00000000
Si       2.71358820       2.71080587       0.00017141       0.00000000
Si       2.71103067      -2.71597047       0.00346248       0.00000000
Si      -2.71705797       2.71409645      -0.00243402       0.00000000
Si      -2.71522209      -2.71715964       0.00140556       0.00000000
Si       0.00016290       2.71412903       2.71903867       0.00000000
Si       2.71445157      -0.00024109       2.71938149       0.00000000
