10
Lattice="16.28999089631971 0.0 0.0 0.0 16.28999089631971 0.0 0.0 0.0 34.281931910070035" Properties=species:S:1:pos:R:3:initial_magmoms:R:1 pbc="T T T"
Si       1.35192339      -1.35779926      -1.35831947       0.00000000
Si       1.35534429       1.35793011       1.35759954       0.00000000
Si      -1.35902583      -1.35763636       1.35705103       0.00000000
Si      -1.35910728       1.35817121      -1.36178194       0.00000000
Si      -0.01127268      -2.69877577      -2.70697485       0.00000000
Si       2.71300176      -0.00025798       2.71423919       0.00000000
Si       2.71458189      -2.71346935      -0.00075420       0.00000000
Si      -0.00156384      -2.71524496       2.71437632       0.00000000
Si       2.71516833       2.71449615       0.00147412       0.00000000
Si      -0.00161271       2.71483824       2.71485627       0.00000000
