10
Lattice="16.28999089631971 0.0 0.0 0.0 16.28999089631971 0.0 0.0 0.0 34.281931910070035" Properties=species:S:1:pos:R:3:initial_magmoms:R:1 pbc="T T T"
Si       1.30417740       1.07675271      -1.59928730       0.00000000
Si      -2.01544767       0.28002510      -1.19959403       0.00000000
Si       0.16996986       1.13552703       2.09661556       0.00000000
Si       0.80883108      -2.23110188       0.36088610       0.00000000
Si      -1.78808814      -1.63160151      -2.56771814       0.00000000
Si       3.37735683       1.07797446      -0.28944251       0.00000000
Si      -0.10528227       3.04199460      -1.86380683       0.00000000
Si      -1.79778069       0.36843093       3.08009618       0.00000000
Si       3.11044518      -2.05822195       0.88629128       0.00000000
Si      -3.87970785      -0.05492988       0.15224614       0.00000000
