10
Lattice="16.28999089631971 0.0 0.0 0.0 16.28999089631971 0.0 0.0 0.0 34.281931910070035" Properties=species:S:1:pos:R:3:initial_magmoms:R:1 pbc="T T T"
Si       1.95804171      -1.26879293      -0.29931571       0.00000000
Si      -1.04555736      -0.69654152       2.01046502       0.00000000
Si       0.43940646       2.27845949       0.50925838       0.00000000
Si      -1.55532033      -0.39395477      -1.82582243       0.00000000
Si      -1.64252070       1.85509868      -2.41859165       0.00000000
Si      -1.23551505       3.33486599      -0.72040092       0.00000000
Si       0.97840998      -3.45087101      -0.78203987       0.00000000
Si       3.04601823      -0.32107331      -2.20995169       0.00000000
Si      -1.78481385      -2.90947286       1.71677155       0.00000000
Si       2.23718715       1.91002856      -2.57083779       0.00000000
