10
Lattice="16.28999089631971 0.0 0.0 0.0 16.28999089631971 0.0 0.0 0.0 34.281931910070035" Properties=species:S:1:pos:R:3:initial_magmoms:R:1 pbc="T T T"
Si       0.74183031      -1.13641388      -1.92256610       0.00000000
Si      -2.23089011      -0.66656141       0.44953922       0.00000000
Si       1.30539915      -1.11289112       1.72863310       0.00000000
Si       1.46776158       1.98926964      -0.14916077       0.00000000
Si       2.32502283       0.76650477       2.67886022       0.00000000
Si       3.00249135      -0.42576358      -2.06778444       0.00000000
Si      -2.51260937      -0.36876325       2.76230249       0.00000000
Si       0.63674352       1.43904231      -3.53532620       0.00000000
Si      -3.85449812       0.69299126      -0.74121006       0.00000000
Si       0.50347503      -3.44511413      -1.97470895       0.00000000
