10
Lattice="16.28999089631971 0.0 0.0 0.0 16.28999089631971 0.0 0.0 0.0 34.281931910070035" Properties=species:S:1:pos:R:3:initial_magmoms:R:1 pbc="T T T"
Si       1.35641943      -1.35803214      -1.35879941       0.00000000
Si      -1.35902583       1.35718506      -1.35955362       0.00000000
Si       1.34399016       1.34990343       1.39174437       0.00000000
Si      -1.35630540      -1.35612621       1.39332134       0.00000000
Si       2.70627399      -2.71316466       0.00119987       0.00000000
Si       2.71469592       2.71176372       0.00222833       0.00000000
Si       2.71202436      -0.00076563      -2.71588473       0.00000000
Si      -0.00262269       2.71362078      -2.71609042       0.00000000
Si      -0.00221544      -2.71639008      -2.71595329       0.00000000
Si      -2.71854036       2.71388142      -0.00113130       0.00000000
