10
Lattice="16.28999089631971 0.0 0.0 0.0 16.28999089631971 0.0 0.0 0.0 34.281931910070035" Properties=species:S:1:pos:R:3:initial_magmoms:R:1 pbc="T T T"
Si      -1.22737005       0.66850902      -1.82990198       0.00000000
Si      -0.79576650       1.03555530       1.93350204       0.00000000
Si       2.30255892       0.41063832       0.19790970       0.00000000
Si      -0.40358475      -2.32836228       0.08560203       0.00000000
Si       2.24894853      -0.72273843       2.35523860       0.00000000
Si       1.42485372      -2.77063578       1.49205336       0.00000000
Si      -3.40107507       0.03116277      -1.13219572       0.00000000
Si      -0.53455635       3.36743622       1.39277283       0.00000000
Si       0.53369298       0.25500366       3.70347917       0.00000000
Si       3.15742554      -0.10819818      -2.03871335       0.00000000
