10
Lattice="16.28999089631971 0.0 0.0 0.0 16.28999089631971 0.0 0.0 0.0 34.281931910070035" Properties=species:S:1:pos:R:3:initial_magmoms:R:1 pbc="T T T"
Si      -2.33313525      -0.18033030       0.44751659       0.00000000
Si       0.41614434      -1.10196963      -2.08969061       0.00000000
Si       0.35940627       2.37791646      -0.37381039       0.00000000
Si       0.87967629      -1.29453372       1.91375564       0.00000000
Si       2.20048578      -2.64028320       0.37641582       0.00000000
Si       2.54404188      -0.30364560      -2.53405326       0.00000000
Si       0.33243003      -3.36412935      -1.39599533       0.00000000
Si      -1.70714313       3.35243313      -0.00689067       0.00000000
Si      -2.63117709       1.73723076       2.08434262       0.00000000
Si      -0.88026273      -0.12836520      -3.76991760       0.00000000
