10
Lattice="16.28999089631971 0.0 0.0 0.0 16.28999089631971 0.0 0.0 0.0 34.281931910070035" Properties=species:S:1:pos:R:3:initial_magmoms:R:1 pbc="T T T"
Si      -1.35676152      -1.35586557      -1.35729101       0.00000000
Si      -1.35689184       1.35726651       1.35770239       0.00000000
Si       1.35788553      -1.35754344       1.35770239       0.00000000
Si       1.35809730       1.36001952      -1.35732529       0.00000000
Si      -2.71257822       0.00151497       2.71458201       0.00000000
Si       0.00148239      -2.71397916       2.71423919       0.00000000
Si      -0.00034209      -2.71249677      -2.71629611       0.00000000
Si      -2.71782849      -0.00104256      -2.71105097       0.00000000
Si      -2.71452650       2.71443528       0.00034282       0.00000000
Si      -2.71453465      -2.71474479      -0.00034282       0.00000000
