10
Lattice="16.28999089631971 0.0 0.0 0.0 16.28999089631971 0.0 0.0 0.0 34.281931910070035" Properties=species:S:1:pos:R:3:initial_magmoms:R:1 pbc="T T T"
Si       1.48392126      -1.65955419      -0.49547704       0.00000000
Si      -1.70263799       0.05068471      -1.58187207       0.00000000
Si       1.18863243       2.00158162      -0.43191830       0.00000000
Si      -1.01172466      -0.22899897       2.13576555       0.00000000
Si       0.65345706       2.91642802       1.65718951       0.00000000
Si       2.11537053      -0.69344316      -2.61554146       0.00000000
Si      -1.39200398       2.08180987       2.37296237       0.00000000
Si      -2.14070867       2.30367967      -1.57151892       0.00000000
Si       0.19232300      -3.64256847      -0.30246965       0.00000000
Si      -3.38902766      -1.21967532      -0.68886152       0.00000000
