10
Lattice="16.28999089631971 0.0 0.0 0.0 16.28999089631971 0.0 0.0 0.0 34.281931910070035" Properties=species:S:1:pos:R:3:initial_magmoms:R:1 pbc="T T T"
Si      -1.62994482      -1.02871350      -1.36301609       0.00000000
Si      -1.68334344       0.85675626       1.52384613       0.00000000
Si       1.46238588      -1.68971283       1.00679234       0.00000000
Si       0.76598838       2.31125778      -0.59376339       0.00000000
Si       0.02953377       1.93181481       2.74087425       0.00000000
Si       2.66735718      -2.40525108      -0.94508483       0.00000000
Si      -1.21000491      -0.25738200      -3.55260431       0.00000000
Si      -3.69649422      -0.05419683      -0.99609637       0.00000000
Si      -1.20749625       3.41325999      -1.54453902       0.00000000
Si       2.96463339      -0.72159813       2.52019105       0.00000000
