10
Lattice="16.28999089631971 0.0 0.0 0.0 16.28999089631971 0.0 0.0 0.0 34.281931910070035" Properties=species:S:1:pos:R:3:initial_magmoms:R:1 pbc="T T T"
Si      -1.36319607      -1.34097651      -1.34865538       0.00000000
Si      -1.35192339       1.35779926       1.35831947       0.00000000
Si       1.36265850      -1.35567009       1.35756526       0.00000000
Si       1.36524861       1.36927224      -1.36722934       0.00000000
Si       0.01203831      -2.66986584      -2.63544213       0.00000000
Si      -2.71016730      -2.71432125      -0.00123415       0.00000000
Si      -2.71094922       0.00016290       2.71537050       0.00000000
Si      -2.71103067       2.71597047      -0.00346248       0.00000000
Si       0.00351864      -2.71423980       2.71554191       0.00000000
Si       0.00342090       2.71572938       2.71591901       0.00000000
