10
Lattice="16.28999089631971 0.0 0.0 0.0 16.28999089631971 0.0 0.0 0.0 34.281931910070035" Properties=species:S:1:pos:R:3:initial_magmoms:R:1 pbc="T T T"
Si      -1.35664749      -1.35944937      -1.35605686       0.00000000
Si       1.35746199      -1.35760860       1.35732529       0.00000000
Si      -1.35749457       1.35710395       1.35845659       0.00000000
Si       1.35902583       1.35763636      -1.35705103       0.00000000
Si       2.71094922      -0.00016290      -2.71537050       0.00000000
Si       0.00030951      -2.71313208       2.71434204       0.00000000
Si       2.71446786      -2.71440270       0.00017141       0.00000000
Si       0.00122175       2.71462166       2.71454773       0.00000000
Si      -2.71403780       0.00001629       2.71516481       0.00000000
Si       2.71399545       0.00208512       2.71550763       0.00000000
