10
Lattice="16.28999089631971 0.0 0.0 0.0 16.28999089631971 0.0 0.0 0.0 34.281931910070035" Properties=species:S:1:pos:R:3:initial_magmoms:R:1 pbc="T T T"
Si       1.35985662       1.33281522      -1.39349275       0.00000000
Si      -1.35720135      -1.37635839      -1.39009883       0.00000000
Si       1.40234094      -1.32085836       1.51066846       0.00000000
Si      -1.25586126       1.65091005       1.42582063       0.00000000
Si      -2.70164763       2.69615790      -0.05152577       0.00000000
Si       2.71329498      -2.70642060      -0.03153939       0.00000000
Si       2.74191651       2.68170867      -0.01007889       0.00000000
Si      -2.70982521      -2.72766276      -0.01621536       0.00000000
Si       0.00294849       2.69566920      -2.75476046       0.00000000
Si      -2.71073745      -0.01954800      -2.75592605       0.00000000
