10
Lattice="16.28999089631971 0.0 0.0 0.0 16.28999089631971 0.0 0.0 0.0 34.281931910070035" Properties=species:S:1:pos:R:3:initial_magmoms:R:1 pbc="T T T"
Si      -1.44578637       1.04524785      -1.47734640       0.00000000
Si       1.16437662       1.65978810       1.21865480       0.00000000
Si      -1.55344698      -1.30549689       1.28365338       0.00000000
Si       1.25586126      -1.65091005      -1.42582063       0.00000000
Si       0.36417924      -1.22741892       2.75942281       0.00000000
Si       2.46887982       0.15385905       2.41626048       0.00000000
Si      -0.09936900       2.40219643      -2.82428426       0.00000000
Si      -2.72626182       2.53039104      -0.15618857       0.00000000
Si       2.81825145       2.61460106      -0.13092277       0.00000000
Si       2.61571788      -0.31809483      -2.81931337       0.00000000
