10
Lattice="16.28999089631971 0.0 0.0 0.0 16.28999089631971 0.0 0.0 0.0 34.281931910070035" Properties=species:S:1:pos:R:3:initial_magmoms:R:1 pbc="T T T"
Si       0.69366078      -1.29704238       1.82373123       0.00000000
Si      -2.23935372       0.27217332       0.65783636       0.00000000
Si       0.50104782      -1.34486982      -1.90134557       0.00000000
Si       0.82546317       2.22322662      -0.40970360       0.00000000
Si      -0.01567098       0.28163781       3.44057089       0.00000000
Si      -3.18901185      -1.77675030       0.10990794       0.00000000
Si      -3.09439953       1.65473820      -1.08680641       0.00000000
Si       3.07170756       2.14151598       0.25046393       0.00000000
Si       2.18403288      -0.18179640      -3.15489939       0.00000000
Si      -2.31503706       0.72474210       3.01036669       0.00000000
