10
Lattice="16.28999089631971 0.0 0.0 0.0 16.28999089631971 0.0 0.0 0.0 34.281931910070035" Properties=species:S:1:pos:R:3:initial_magmoms:R:1 pbc="T T T"
Si       0.70196868       0.59645835      -2.10024945       0.00000000
Si      -0.02616174      -2.38029480       0.02612285       0.00000000
Si      -2.06125515       1.13785650       0.39856196       0.00000000
Si      -0.02365308       1.29034719       2.03418813       0.00000000
Si      -2.26461951       0.21299175       2.63700196       0.00000000
Si       1.94983155       0.18834498       2.98496376       0.00000000
Si       1.68160041       2.77853643      -1.61752530       0.00000000
Si      -1.32199866       3.35078784       0.69225544       0.00000000
Si      -0.94169232      -0.51666993      -3.61033511       0.00000000
Si       2.57978214      -0.49945140      -2.83642007       0.00000000
