10
Lattice="16.28999089631971 0.0 0.0 0.0 16.28999089631971 0.0 0.0 0.0 34.281931910070035" Properties=species:S:1:pos:R:3:initial_magmoms:R:1 pbc="T T T"
Si      -1.95804171       1.26879293       0.29931571       0.00000000
Si       1.08797652       0.94771962      -1.91063598       0.00000000
Si      -0.97963173      -2.18207808      -0.48272415       0.00000000
Si       1.80276543       0.08355141       1.79226040       0.00000000
Si       3.50016714      -0.46449306       0.26112562       0.00000000
Si       0.89818173      -3.27798783      -1.21889477       0.00000000
Si      -1.68160041      -2.77853643       1.61752530       0.00000000
Si       3.38959062       1.12059954      -1.38523080       0.00000000
Si      -3.00359907       0.57225141       2.30978074       0.00000000
Si       0.27914544       3.17882150      -2.27152208       0.00000000
