10
Lattice="16.28999089631971 0.0 0.0 0.0 16.28999089631971 0.0 0.0 0.0 34.281931910070035" Properties=species:S:1:pos:R:3:initial_magmoms:R:1 pbc="T T T"
Si      -1.85315040      -0.81853992       1.28646248       0.00000000
Si       0.89621064       1.88751808       1.23580061       0.00000000
Si       1.65543867      -1.83146841       0.11309688       0.00000000
Si      -0.42060780      -2.03538663      -2.80697187       0.00000000
Si       2.16963252       0.52230627       2.74665419       0.00000000
Si      -0.55881216      -2.18794248       2.76522815       0.00000000
Si      -2.66888844      -2.72795598       0.13309080       0.00000000
Si       3.47628600      -0.87975774       1.35464242       0.00000000
Si       0.81642222      -3.51683181       1.47844140       0.00000000
Si       1.55287683      -3.13738884      -1.85619624       0.00000000
