10
Lattice="16.28999089631971 0.0 0.0 0.0 16.28999089631971 0.0 0.0 0.0 34.281931910070035" Properties=species:S:1:pos:R:3:initial_magmoms:R:1 pbc="T T T"
Si      -2.23604685      -0.46865353       0.02869399       0.00000000
Si       0.18591777       2.24292123       0.71556716       0.00000000
Si       1.78699671      -1.42021596       0.74474111       0.00000000
Si      -1.48240629       0.16001667      -2.53720720       0.00000000
Si      -2.68806177       0.95146632       1.97073224       0.00000000
Si       1.38557853       2.01456801       2.72243258       0.00000000
Si      -2.35335114      -2.80999961       0.41782842       0.00000000
Si       1.70958663       3.19733604      -0.79612975       0.00000000
Si       3.79690578      -0.36584245       0.13603078       0.00000000
Si      -2.05348482       3.06854730       0.99784475       0.00000000
