10
Lattice="16.28999089631971 0.0 0.0 0.0 16.28999089631971 0.0 0.0 0.0 34.281931910070035" Properties=species:S:1:pos:R:3:initial_magmoms:R:1 pbc="T T T"
Si      -0.42590205      -2.06649727      -0.98310351       0.00000000
Si      -1.53793890       0.68497821       1.63367210       0.00000000
Si       2.11491441      -0.19995975       1.08063566       0.00000000
Si      -0.15899040       1.06969914      -2.15883730       0.00000000
Si      -3.36637737       1.12725171       0.22722077       0.00000000
Si      -0.31532553      -3.65158988       0.66325291       0.00000000
Si       1.28879964      -0.23452713      -3.49278230       0.00000000
Si      -0.71384409       2.73287556       2.49685734       0.00000000
Si      -1.67453055      -0.96738002       3.26213334       0.00000000
Si      -2.72751615      -2.23937720      -1.50850869       0.00000000
