10
Lattice="16.28999089631971 0.0 0.0 0.0 16.28999089631971 0.0 0.0 0.0 34.281931910070035" Properties=species:S:1:pos:R:3:initial_magmoms:R:1 pbc="T T T"
Si      -0.69812424      -1.88353125       1.33576194       0.00000000
Si      -1.44036180       1.26477189      -1.50713741       0.00000000
Si       1.28725209      -1.41977124      -1.51731915       0.00000000
Si       0.81785574       2.06809695       1.33442495       0.00000000
Si       2.61079830      -2.76239304      -0.06534140       0.00000000
Si       2.65424373       2.76242562      -0.12560907       0.00000000
Si      -2.69182476      -2.73911463      -0.02269465       0.00000000
Si      -2.80872180       2.67920001      -0.03829294       0.00000000
Si      -0.06965604       2.62663218      -2.89665346       0.00000000
Si       2.64106512      -0.08739585      -2.89881322       0.00000000
