10
Lattice="16.28999089631971 0.0 0.0 0.0 16.28999089631971 0.0 0.0 0.0 34.281931910070035" Properties=species:S:1:pos:R:3:initial_magmoms:R:1 pbc="T T T"
Si       0.69605541       2.17077282       0.53815807       0.00000000
Si      -2.30255892      -0.41063832      -0.19790970       0.00000000
Si      -0.05361039      -1.13337675       2.15732890       0.00000000
Si       0.85486662      -0.51883650      -2.23662305       0.00000000
Si      -0.87770520      -3.18127410       1.29414365       0.00000000
Si      -3.09832542       0.62491698       1.73559234       0.00000000
Si       0.13291011       3.32534286      -1.41975272       0.00000000
Si       3.06569655       1.91712123       0.55852155       0.00000000
Si       0.50124330      -2.79655317      -2.49836575       0.00000000
Si      -2.70614367      -2.73900060      -0.11230767       0.00000000
