10
Lattice="16.28999089631971 0.0 0.0 0.0 16.28999089631971 0.0 0.0 0.0 34.281931910070035" Properties=species:S:1:pos:R:3:initial_magmoms:R:1 pbc="T T T"
Si      -1.05249690      -1.70108325       1.33713322       0.00000000
Si      -1.40234094       1.32085836      -1.51066846       0.00000000
Si       1.31095404      -1.38556224      -1.54220785       0.00000000
Si       1.34141634       1.49884290       1.54642453       0.00000000
Si       0.84844836      -3.33345528       1.32612871       0.00000000
Si       2.68483635      -2.63912661      -0.13390530       0.00000000
Si       2.77957899       2.69527824       0.06804967       0.00000000
Si      -2.77812918      -2.72235222      -0.04658917       0.00000000
Si      -0.18932238       3.12562746       2.33141265       0.00000000
Si      -2.29402296       1.74434949       2.67457498       0.00000000
