10
Lattice="16.28999089631971 0.0 0.0 0.0 16.28999089631971 0.0 0.0 0.0 34.281931910070035" Properties=species:S:1:pos:R:3:initial_magmoms:R:1 pbc="T T T"
Si       1.92842649       0.45877527       1.35763383       0.00000000
Si       1.02596049      -0.57721986      -2.11043119       0.00000000
Si      -0.93840174       2.21617305      -0.29962425       0.00000000
Si      -1.15487955      -2.02773033       0.73291383       0.00000000
Si       2.18844747       1.56566448      -2.08828505       0.00000000
Si      -0.69178743      -1.98263961       3.07029154       0.00000000
Si      -2.64492585       1.80941175      -1.92078344       0.00000000
Si       3.18671496       1.96848360       0.09914340       0.00000000
Si       0.74458332       3.37924647      -1.55317808       0.00000000
Si       3.07434654      -1.67161464      -1.58036366       0.00000000
