10
Lattice="16.28999089631971 0.0 0.0 0.0 16.28999089631971 0.0 0.0 0.0 34.281931910070035" Properties=species:S:1:pos:R:3:initial_magmoms:R:1 pbc="T T T"
Si      -0.50104782       1.34486982       1.90134557       0.00000000
Si      -1.70652411      -0.40676130      -1.62115918       0.00000000
Si       1.68298506       1.16307342      -1.25355382       0.00000000
Si       0.93840174      -2.21617305       0.29962425       0.00000000
Si       3.12684921      -0.65050857      -1.78866080       0.00000000
Si      -3.61861173      -0.61160805      -0.33856855       0.00000000
Si       0.19261296       0.04782744       3.72507680       0.00000000
Si       2.86682823      -1.75739778       1.65725808       0.00000000
Si       1.96436223      -2.79339291      -1.81080694       0.00000000
Si       0.32441535       3.56809644       1.49164197       0.00000000
