10
Lattice="16.28999089631971 0.0 0.0 0.0 16.28999089631971 0.0 0.0 0.0 34.281931910070035" Properties=species:S:1:pos:R:3:initial_magmoms:R:1 pbc="T T T"
Si       1.50224751       0.96811470       1.51339871       0.00000000
Si       1.20497130      -0.71553825      -1.95187717       0.00000000
Si      -1.46238588       1.68971283      -1.00679234       0.00000000
Si      -1.27780389      -1.74074940       1.45084101       0.00000000
Si       2.78943444       2.33702856       0.05108011       0.00000000
Si      -0.05866029       2.21381100       2.99392647       0.00000000
Si      -3.09233070       0.66099933      -2.36980843       0.00000000
Si       0.42176439      -2.80111437      -2.76007416       0.00000000
Si      -2.57206068      -3.01145085      -0.08224240       0.00000000
Si       2.64298734      -0.50425695       2.98218833       0.00000000
