10
Lattice="16.28999089631971 0.0 0.0 0.0 16.28999089631971 0.0 0.0 0.0 34.281931910070035" Properties=species:S:1:pos:R:3:initial_magmoms:R:1 pbc="T T T"
Si      -1.35622395       1.35786999       1.36150769       0.00000000
Si       1.35659862      -1.36045935       1.35993072       0.00000000
Si       1.35690813       1.35296735      -1.37266646       0.00000000
Si      -1.35713619      -1.36407573      -1.36873775       0.00000000
Si      -0.11632689       2.55155876      -2.74933363       0.00000000
Si       0.08630442      -2.65660578      -2.76723223       0.00000000
Si      -2.71523349       2.71331194       0.00884474       0.00000000
Si      -2.71256193      -2.71774215       0.00267399       0.00000000
Si       0.00122175       2.71422255       2.71773595       0.00000000
Si      -2.71404432      -0.00105885       2.71814734       0.00000000
