10
Lattice="16.28999089631971 0.0 0.0 0.0 16.28999089631971 0.0 0.0 0.0 34.281931910070035" Properties=species:S:1:pos:R:3:initial_magmoms:R:1 pbc="T T T"
Si       1.35586557       1.35607734       1.35845659       0.00000000
Si       1.35734796      -1.36060596      -1.35701675       0.00000000
Si      -1.35913986      -1.35856971       1.35797665       0.00000000
Si      -1.36265850       1.35567009      -1.35756526       0.00000000
Si      -2.71458189       2.71346935       0.00075420       0.00000000
Si      -0.00158013       2.71321138       2.71499340       0.00000000
Si       2.71368594       2.71500618       0.00181694       0.00000000
Si       2.71308321      -2.71585251      -0.00095989       0.00000000
Si       2.71383255      -0.00171045       2.71567904       0.00000000
Si      -2.71639008      -2.71410948       0.00044567       0.00000000
