10
Lattice="16.28999089631971 0.0 0.0 0.0 16.28999089631971 0.0 0.0 0.0 34.281931910070035" Properties=species:S:1:pos:R:3:initial_magmoms:R:1 pbc="T T T"
Si       1.33833753       1.36751789      -1.38547077       0.00000000
Si      -1.17952632       1.58380244       1.30497675       0.00000000
Si      -1.38205989      -1.34889345      -1.38341385       0.00000000
Si       1.44000342      -1.30728879       1.58879702       0.00000000
Si       2.70283680      -2.69171073       0.00325679       0.00000000
Si       2.68407072       2.71852311       0.01127876       0.00000000
Si      -2.74191651      -2.68170867       0.01007889       0.00000000
Si       2.69203653       0.01275507      -2.74499010       0.00000000
Si      -0.01984122      -2.70088200      -2.74505867       0.00000000
Si      -2.73864222       2.73183530      -0.01714098       0.00000000
