10
Lattice="16.28999089631971 0.0 0.0 0.0 16.28999089631971 0.0 0.0 0.0 34.281931910070035" Properties=species:S:1:pos:R:3:initial_magmoms:R:1 pbc="T T T"
Si      -1.47323502       1.19859140      -1.37666717       0.00000000
Si      -1.35690813      -1.35296735       1.37266646       0.00000000
Si       1.36260963       1.36074043       1.37084952       0.00000000
Si       1.28389635      -1.31483246      -1.57283192       0.00000000
Si       2.71541268      -2.70396221      -0.02812148       0.00000000
Si      -2.71982727       2.70132761       0.00605076       0.00000000
Si       2.71257822       2.71437590      -0.01574913       0.00000000
Si      -2.71404432      -2.71704308       0.00392871       0.00000000
Si      -0.00030951      -2.71342670       2.73259718       0.00000000
Si      -2.71313208       0.00490264       2.73417415       0.00000000
