10
Lattice="16.28999089631971 0.0 0.0 0.0 16.28999089631971 0.0 0.0 0.0 34.281931910070035" Properties=species:S:1:pos:R:3:initial_magmoms:R:1 pbc="T T T"
Si       1.35394575      -1.35727615       1.36209048       0.00000000
Si      -1.36158336       1.35733330       1.36222761       0.00000000
Si       1.34996859       1.35363547      -1.38659865       0.00000000
Si      -1.36260963      -1.36074043      -1.37084952       0.00000000
Si       2.70981611       2.71489303      -0.00195407       0.00000000
Si       2.71165199      -2.71636306       0.00188551       0.00000000
Si      -2.71331127       2.71640800       0.00267399       0.00000000
Si       2.71141904       0.00018245       2.71921008       0.00000000
Si      -2.71951776      -2.71370779       0.00181694       0.00000000
Si      -0.00278559       2.71490932       2.71921008       0.00000000
