10
Lattice="16.28999089631971 0.0 0.0 0.0 16.28999089631971 0.0 0.0 0.0 34.281931910070035" Properties=species:S:1:pos:R:3:initial_magmoms:R:1 pbc="T T T"
Si      -1.35708732      -1.35621514       1.35739385       0.00000000
Si       1.35718506       1.35782659       1.35701675       0.00000000
Si       1.35773892      -1.35720883      -1.35773667       0.00000000
Si      -1.35734796       1.35843095      -1.35756526       0.00000000
Si      -2.71078632      -0.00145232       2.71691319       0.00000000
Si      -2.71479366       0.00207839      -2.71379353       0.00000000
Si      -2.71464705      -2.71463824       0.00006856       0.00000000
Si      -2.71453302       2.71529836      -0.00061708       0.00000000
Si       2.71489380       0.00064004      -2.71502768       0.00000000
Si      -0.00063531       2.71524949      -2.71489055       0.00000000
