10
Lattice="16.28999089631971 0.0 0.0 0.0 16.28999089631971 0.0 0.0 0.0 34.281931910070035" Properties=species:S:1:pos:R:3:initial_magmoms:R:1 pbc="T T T"
Si      -1.35317772       1.35766724       1.36006784       0.00000000
Si       1.35766777       1.35761837      -1.35657109       0.00000000
Si      -1.35718506      -1.35782659      -1.35701675       0.00000000
Si       1.35651481      -1.35721505       1.36071920       0.00000000
Si       0.01177767       2.69807360       2.71417063       0.00000000
Si       2.69885457       0.01430262       2.72603219       0.00000000
Si      -2.71427238      -2.71404173       0.00037710       0.00000000
Si      -2.71453302       0.00060436      -2.71458201       0.00000000
Si       0.00055386      -2.71503542      -2.71475342       0.00000000
Si       0.00097740       2.71499891      -2.71492483       0.00000000
