10
Lattice="16.28999089631971 0.0 0.0 0.0 16.28999089631971 0.0 0.0 0.0 34.281931910070035" Properties=species:S:1:pos:R:3:initial_magmoms:R:1 pbc="T T T"
Si      -1.28684484      -1.39708483       1.49952682       0.00000000
Si       0.74189547       1.84997548       1.41162790       0.00000000
Si      -1.36510200       1.30148303      -1.66785120       0.00000000
Si       1.35513252      -1.39991929      -1.66476583       0.00000000
Si       2.64187962       2.68540813      -0.13027141       0.00000000
Si      -2.60916930      -2.72432887      -0.09033294       0.00000000
Si      -2.74735737       2.70643852      -0.23202024       0.00000000
Si      -0.96760971       3.63185713       0.98368630       0.00000000
Si       2.85778371      -2.71155751      -0.33202070       0.00000000
Si       3.74998473      -0.81246931       1.04645656       0.00000000
