10
Lattice="16.28999089631971 0.0 0.0 0.0 16.28999089631971 0.0 0.0 0.0 34.281931910070035" Properties=species:S:1:pos:R:3:initial_magmoms:R:1 pbc="T T T"
Si       2.04546104       0.83461815      -0.71577286       0.00000000
Si       0.38027932      -2.31080885      -0.23719682       0.00000000
Si      -1.60924023       0.57052467      -1.72890736       0.00000000
Si       0.30387824       0.57620988       2.36432332       0.00000000
Si       1.39200398      -2.08180987      -2.37296237       0.00000000
Si       0.29017737      -1.64407639       3.12308574       0.00000000
Si       1.67294132       3.15721377      -0.58865538       0.00000000
Si      -1.71779679      -3.32016983       0.07487178       0.00000000
Si      -1.83321144      -2.34221597       2.31972250       0.00000000
Si       1.71109250      -2.90640383       1.70000767       0.00000000
