10
Lattice="16.28999089631971 0.0 0.0 0.0 16.28999089631971 0.0 0.0 0.0 34.281931910070035" Properties=species:S:1:pos:R:3:initial_magmoms:R:1 pbc="T T T"
Si       1.34486819       1.34306163      -1.36524442       0.00000000
Si       1.25908505      -1.37381715       1.44378437       0.00000000
Si      -1.36970460      -1.37161800      -1.36284468       0.00000000
Si      -1.33388401       1.37575566       1.39928640       0.00000000
Si      -2.37746916      -0.39618909       2.57265474       0.00000000
Si      -0.57396349      -2.21048784       2.77995769       0.00000000
Si       2.70500174       2.70905958       0.01618108       0.00000000
Si      -0.00967789       2.70185940      -2.72332391       0.00000000
Si       2.70438272      -0.01363473      -2.72366673       0.00000000
Si       2.43745478       0.09835902       2.96508023       0.00000000
