10
Lattice="16.28999089631971 0.0 0.0 0.0 16.28999089631971 0.0 0.0 0.0 34.281931910070035" Properties=species:S:1:pos:R:3:initial_magmoms:R:1 pbc="T T T"
Si       1.53379051       1.13483308       1.37737478       0.00000000
Si      -1.26294741      -1.53967934       1.33907499       0.00000000
Si      -0.83667069       1.42297385      -1.77841049       0.00000000
Si       0.50657569       0.12635338      -3.24828343       0.00000000
Si      -0.51956955      -2.02481183      -2.84413351       0.00000000
Si       0.16573446       2.48952902       2.89615778       0.00000000
Si      -2.54684376      -0.22484688       2.91190691       0.00000000
Si       2.79015839       0.50487434      -2.75201790       0.00000000
Si       2.90446532       2.71231106       0.25346947       0.00000000
Si      -2.44161036      -3.15002729      -0.08861884       0.00000000
