10
Lattice="16.28999089631971 0.0 0.0 0.0 16.28999089631971 0.0 0.0 0.0 34.281931910070035" Properties=species:S:1:pos:R:3:initial_magmoms:R:1 pbc="T T T"
Si       1.35403125      -1.35508365       1.35794236       0.00000000
Si       1.35468310       1.34798121      -1.36439080       0.00000000
Si      -1.35883035       1.35687555       1.35845659       0.00000000
Si      -1.36611198      -1.35610992      -1.37585811       0.00000000
Si       2.70912704       2.71394658       0.00455950       0.00000000
Si       2.71069577      -2.71513575      -0.00562224       0.00000000
Si      -2.71243161      -2.71362078      -0.00099418       0.00000000
Si       2.71242088       0.00024435       2.71526765       0.00000000
Si      -2.71676475       2.71306692      -0.00503945       0.00000000
Si      -0.00179190       2.71458189       2.71605614       0.00000000
