10
Lattice="16.28999089631971 0.0 0.0 0.0 16.28999089631971 0.0 0.0 0.0 34.281931910070035" Properties=species:S:1:pos:R:3:initial_magmoms:R:1 pbc="T T T"
Si      -1.52366886      -0.95441481       1.51169691       0.00000000
Si       2.19887307      -0.32532759       0.80329468       0.00000000
Si       0.22403637      -1.16602191      -2.04978642       0.00000000
Si      -0.03051117       2.25109881       0.75389439       0.00000000
Si       1.72791288      -1.84813308       2.53765286       0.00000000
Si       1.58866596       3.11608152      -0.84559861       0.00000000
Si       1.17661041       0.49717080      -3.40718027       0.00000000
Si      -1.70958663      -3.19733604       0.79612975       0.00000000
Si      -0.32400810      -1.18276803       3.51856233       0.00000000
Si       1.93354155      -2.94790356      -1.62184482       0.00000000
