10
Lattice="16.28999089631971 0.0 0.0 0.0 16.28999089631971 0.0 0.0 0.0 34.281931910070035" Properties=species:S:1:pos:R:3:initial_magmoms:R:1 pbc="T T T"
Si       1.38394953      -1.28721951      -1.33661899       0.00000000
Si      -0.95257404      -1.66319271       1.35739385       0.00000000
Si       1.72164123       1.06328088       1.24491477       0.00000000
Si      -1.35588186       1.44889776      -1.31474711       0.00000000
Si      -1.17661041      -0.49717080       3.40718027       0.00000000
Si       0.41205555       2.61891072       2.56158167       0.00000000
Si       2.65691529      -2.60964171       0.24343613       0.00000000
Si       0.01899414      -2.62762587      -2.69072178       0.00000000
Si      -2.73232170      -2.58861132       0.14168730       0.00000000
Si      -2.70205488       0.08638587      -2.69178452       0.00000000
