10
Lattice="16.28999089631971 0.0 0.0 0.0 16.28999089631971 0.0 0.0 0.0 34.281931910070035" Properties=species:S:1:pos:R:3:initial_magmoms:R:1 pbc="T T T"
Si      -0.75183237       1.00458801       1.94721482       0.00000000
Si       0.24317712      -2.30044122       0.32574710       0.00000000
Si       2.26416080       0.42337710      -0.52362252       0.00000000
Si      -1.83474270       0.49316346      -1.48704819       0.00000000
Si       1.10371266      -2.64909609      -1.88982683       0.00000000
Si      -0.81150264       3.30820578       1.45256055       0.00000000
Si      -2.99657808       0.35391654       2.18612574       0.00000000
Si      -3.53543499       1.32981786       0.04494364       0.00000000
Si      -1.90241136      -3.22802640       0.59043804       0.00000000
Si       3.52535867       0.28624788       1.46599907       0.00000000
