10
Lattice="16.28999089631971 0.0 0.0 0.0 16.28999089631971 0.0 0.0 0.0 34.281931910070035" Properties=species:S:1:pos:R:3:initial_magmoms:R:1 pbc="T T T"
Si      -0.37668996      -1.95308955      -1.33024255       0.00000000
Si       0.39242610       1.85642469      -1.46973581       0.00000000
Si       1.83474270      -0.49316346       1.48704819       0.00000000
Si      -1.70069229       0.83665440       1.53199183       0.00000000
Si       1.08291033       0.51142455       3.43426301       0.00000000
Si      -1.16183538      -0.13924692       3.67317393       0.00000000
Si       1.67523102      -2.61845460      -2.31115201       0.00000000
Si       2.07791982      -2.79360468       1.81279529       0.00000000
Si       2.45592927       2.95945317      -0.78862200       0.00000000
Si      -1.02863205      -3.80856942      -0.05289705       0.00000000
