10
Lattice="16.28999089631971 0.0 0.0 0.0 16.28999089631971 0.0 0.0 0.0 34.281931910070035" Properties=species:S:1:pos:R:3:initial_magmoms:R:1 pbc="T T T"
Si      -0.99834894      -1.78305453       1.33382299       0.00000000
Si      -0.01615968      -1.77269409      -1.73182132       0.00000000
Si       1.83357538       0.98808624       1.37212279       0.00000000
Si      -1.72467117       1.98467586      -0.11381608       0.00000000
Si       2.43122453      -1.46165283      -1.58718577       0.00000000
Si      -1.05577119       1.56116844      -2.83223767       0.00000000
Si      -2.18647638      -0.31724775       2.79373359       0.00000000
Si       2.97843821       0.99500949      -1.74813953       0.00000000
Si       0.53431870       2.38684338       2.80520091       0.00000000
Si      -1.41923367      -0.86148036      -3.38719389       0.00000000
