10
Lattice="16.28999089631971 0.0 0.0 0.0 16.28999089631971 0.0 0.0 0.0 34.281931910070035" Properties=species:S:1:pos:R:3:initial_magmoms:R:1 pbc="T T T"
Si       1.83109374       0.79573392       1.31738682       0.00000000
Si       1.14487749      -1.52723637      -1.45424036       0.00000000
Si      -1.34763912      -1.44182790       1.39205291       0.00000000
Si      -1.55644434       1.19856933      -1.43672229       0.00000000
Si       2.64767529       2.59576263      -0.09286981       0.00000000
Si       2.50490867      -0.17319528      -2.82476420       0.00000000
Si      -0.21388770       2.54697408      -2.82366718       0.00000000
Si       2.54008229      -2.85239529      -0.06301023       0.00000000
Si      -2.81927772       2.58299127       0.14881795       0.00000000
Si       3.44590908      -1.07106750       1.32852845       0.00000000
