10
Lattice="16.28999089631971 0.0 0.0 0.0 16.28999089631971 0.0 0.0 0.0 34.281931910070035" Properties=species:S:1:pos:R:3:initial_magmoms:R:1 pbc="T T T"
Si      -0.14981913       1.72851561      -1.58920841       0.00000000
Si       2.04190493      -1.11441519       0.45437298       0.00000000
Si      -0.17689311       1.02441294       2.15811738       0.00000000
Si      -2.06350317      -1.10302848      -0.68111380       0.00000000
Si       0.59287455       0.19740222      -3.25784809       0.00000000
Si       0.66476232      -2.08805220      -2.50439937       0.00000000
Si      -2.42675388       2.16142236      -1.62678142       0.00000000
Si      -3.68504235       0.65171403      -0.36829100       0.00000000
Si       3.31047728       0.39811131       1.74495131       0.00000000
Si       2.79997148      -2.08694448      -1.58680867       0.00000000
