10
Lattice="16.28999089631971 0.0 0.0 0.0 16.28999089631971 0.0 0.0 0.0 34.281931910070035" Properties=species:S:1:pos:R:3:initial_magmoms:R:1 pbc="T T T"
Si      -0.61411671       2.22174423       0.07394617       0.00000000
Si      -0.95421933      -1.39009086       1.58382614       0.00000000
Si      -0.97997382      -0.87175935      -1.94488365       0.00000000
Si       2.29067441      -0.51921117      -0.19053908       0.00000000
Si       2.32285693       0.47833956      -2.32609894       0.00000000
Si      -0.33485724      -0.08511525       3.40128378       0.00000000
Si       0.08249256      -3.38250447       0.63157638       0.00000000
Si       0.27582228       0.29706444      -3.51499701       0.00000000
Si      -2.83489983       2.12951025      -0.64062682       0.00000000
Si      -0.92030355      -3.17537712      -1.45022938       0.00000000
