10
Lattice="16.28999089631971 0.0 0.0 0.0 16.28999089631971 0.0 0.0 0.0 34.281931910070035" Properties=species:S:1:pos:R:3:initial_magmoms:R:1 pbc="T T T"
Si      -0.55693881       1.76678082      -1.40744550       0.00000000
Si      -1.05648795      -2.05622154      -0.31405695       0.00000000
Si       2.05373636      -1.05135660      -0.37816420       0.00000000
Si      -0.38900520       0.84385458       2.15678039       0.00000000
Si       1.90888893       0.45729288       2.93004408       0.00000000
Si       0.65570575       1.20809898      -3.40035816       0.00000000
Si       2.85471566      -1.46122929       1.78183869       0.00000000
Si      -3.33342270      -1.62331479      -0.35162997       0.00000000
Si       0.29564721       3.85274790      -0.66212160       0.00000000
Si      -1.70349417      -0.48220029       3.55939213       0.00000000
