10
Lattice="16.28999089631971 0.0 0.0 0.0 16.28999089631971 0.0 0.0 0.0 34.281931910070035" Properties=species:S:1:pos:R:3:initial_magmoms:R:1 pbc="T T T"
Si      -2.20895658      -0.34308369      -0.67837125       0.00000000
Si      -0.16907391      -2.14812972       0.99019987       0.00000000
Si       1.92322088       0.64912392      -1.27700268       0.00000000
Si      -0.48381300       1.57892454       1.74508844       0.00000000
Si      -3.13545033       1.76109561      -0.62999941       0.00000000
Si      -1.04870133      -1.62103419       3.23289083       0.00000000
Si      -2.25924381      -1.38346083      -2.71060531       0.00000000
Si       3.72683339       0.68354469       0.31943922       0.00000000
Si       1.80597686      -3.33309690       0.79256443       0.00000000
Si       2.60199260      -0.95957874      -2.79915559       0.00000000
