10
Lattice="16.28999089631971 0.0 0.0 0.0 16.28999089631971 0.0 0.0 0.0 34.281931910070035" Properties=species:S:1:pos:R:3:initial_magmoms:R:1 pbc="T T T"
Si       0.98492598      -0.38004570       2.06168226       0.00000000
Si      -2.22462756      -0.58707531       0.43503796       0.00000000
Si       0.19016946       2.28136563      -0.58293030       0.00000000
Si       1.46662128      -1.49424912      -1.21430099       0.00000000
Si       3.15863100       0.25730055       1.36397599       0.00000000
Si      -1.85210784      -2.90967093       0.30792048       0.00000000
Si      -1.81832238       2.97740475      -1.56168000       0.00000000
Si      -3.48582542      -0.44994609      -1.55458364       0.00000000
Si       3.70716417      -0.83310318      -0.68094239       0.00000000
Si       1.72397070       2.58465285      -2.33017850       0.00000000
