10
Lattice="16.28999089631971 0.0 0.0 0.0 16.28999089631971 0.0 0.0 0.0 34.281931910070035" Properties=species:S:1:pos:R:3:initial_magmoms:R:1 pbc="T T T"
Si      -1.35654323      -1.35708766       1.35670821       0.00000000
Si       1.35871632       1.35751770       1.35609114       0.00000000
Si       1.35749457      -1.35710395      -1.35845659       0.00000000
Si      -1.35804191       1.35808948      -1.35855944       0.00000000
Si       2.71331127       0.00241845       2.71334786       0.00000000
Si       2.71495656      -2.71471255      -0.00113130       0.00000000
Si      -2.71517327      -2.71497319      -0.00054851       0.00000000
Si       2.71490769       2.71537065      -0.00065136       0.00000000
Si      -0.00058644       2.71509372      -2.71557619       0.00000000
Si      -0.00249237      -2.71743298       2.71348499       0.00000000
