10
Lattice="16.28999089631971 0.0 0.0 0.0 16.28999089631971 0.0 0.0 0.0 34.281931910070035" Properties=species:S:1:pos:R:3:initial_magmoms:R:1 pbc="T T T"
Si       1.51345829      -0.55420209       1.76610327       0.00000000
Si       0.66998978       2.27688588      -0.39924760       0.00000000
Si       0.78578399      -1.19856933      -1.94464367       0.00000000
Si      -2.52075111       0.01195686       0.68200513       0.00000000
Si       0.96624461      -3.01086441       1.92705703       0.00000000
Si      -3.11597142       1.91966247      -0.57507973       0.00000000
Si      -1.30506099       3.46185306      -0.20161215       0.00000000
Si      -2.88421359      -2.41069194       0.12704891       0.00000000
Si       1.21541645       1.36335897       3.40292931       0.00000000
Si       2.96633081      -0.50223699      -2.45133091       0.00000000
