10
Lattice="16.28999089631971 0.0 0.0 0.0 16.28999089631971 0.0 0.0 0.0 34.281931910070035" Properties=species:S:1:pos:R:3:initial_magmoms:R:1 pbc="T T T"
Si      -1.34486819      -1.34306163       1.36524442       0.00000000
Si      -1.35454608       1.35879777      -1.35807949       0.00000000
Si       1.35951453      -1.35669636      -1.35842231       0.00000000
Si       1.36013355       1.36599795       1.38142550       0.00000000
Si      -2.71392581       2.71189404       0.00277684       0.00000000
Si      -2.71344415      -0.00022806      -2.71502768       0.00000000
Si      -2.71457279      -2.71467963       0.00239974       0.00000000
Si       0.00114030       2.71454931      -2.71495911       0.00000000
Si       0.00100998      -2.71461447      -2.71513052       0.00000000
Si       2.71275741       2.71730232       0.00754203       0.00000000
