10
Lattice="16.28999089631971 0.0 0.0 0.0 16.28999089631971 0.0 0.0 0.0 34.281931910070035" Properties=species:S:1:pos:R:3:initial_magmoms:R:1 pbc="T T T"
Si       1.35937973      -1.35309627      -1.36085633       0.00000000
Si      -1.35654512       1.36096434      -1.35958790       0.00000000
Si      -1.36003118      -1.35404109       1.37052384       0.00000000
Si       1.38116761       1.35482301       1.35591973       0.00000000
Si      -2.50490867       0.17319528       2.82476420       0.00000000
Si      -2.71397453      -2.71132389       0.00047995       0.00000000
Si       2.71392581      -2.71189404      -0.00277684       0.00000000
Si       2.71285067       2.71502172      -0.00346248       0.00000000
Si       0.00048166      -2.71212210      -2.71780452       0.00000000
Si      -2.71460984       0.00301365      -2.71753026       0.00000000
