10
Lattice="16.28999089631971 0.0 0.0 0.0 16.28999089631971 0.0 0.0 0.0 34.281931910070035" Properties=species:S:1:pos:R:3:initial_magmoms:R:1 pbc="T T T"
Si      -1.44033574       0.80757675       1.60206414       0.00000000
Si       0.45090720       1.92539655      -1.23826407       0.00000000
Si       2.00849184      -0.69603912       0.97874970       0.00000000
Si      -1.26857235      -1.51252650      -1.29057833       0.00000000
Si      -3.48737039       0.62630163       0.41316607       0.00000000
Si       2.73758337       1.57912002      -1.75924688       0.00000000
Si       3.54229308      -0.39275190      -0.76849850       0.00000000
Si      -3.31047728      -0.39811131      -1.74495131       0.00000000
Si      -1.66750304      -3.42735084       0.00709636       0.00000000
Si       1.81832238      -2.97740475       1.56168000       0.00000000
