10
Lattice="16.28999089631971 0.0 0.0 0.0 16.28999089631971 0.0 0.0 0.0 34.281931910070035" Properties=species:S:1:pos:R:3:initial_magmoms:R:1 pbc="T T T"
Si      -2.00849184       0.69603912      -0.97874970       0.00000000
Si       1.53380124       0.30328722      -1.74724820       0.00000000
Si      -0.19016946      -2.28136563       0.58293030       0.00000000
Si       0.93384054       1.26985437       1.81433798       0.00000000
Si       3.01891167       0.30529089       1.44981799       0.00000000
Si       0.72909153       2.27515914      -2.73799659       0.00000000
Si      -1.55758464       2.62143567      -2.21701378       0.00000000
Si       3.64620699       0.58350780      -0.78293120       0.00000000
Si      -3.44882758       1.50361587       0.62331443       0.00000000
Si       0.79475652      -2.66141133       2.64461255       0.00000000
