10
Lattice="16.28999089631971 0.0 0.0 0.0 16.28999089631971 0.0 0.0 0.0 34.281931910070035" Properties=species:S:1:pos:R:3:initial_magmoms:R:1 pbc="T T T"
Si      -1.35671490      -1.35651717       1.35790808       0.00000000
Si       1.35726167      -1.35765747      -1.35759954       0.00000000
Si      -1.35749682       1.35775521      -1.35783952       0.00000000
Si       1.35863003       1.35788553       1.35725672       0.00000000
Si       2.71268090      -0.00245979       2.71403350       0.00000000
Si      -0.00008370      -2.71529865      -2.71382781       0.00000000
Si      -2.71477962      -2.71446786      -0.00003428       0.00000000
Si       2.71489634      -2.71482624      -0.00023997       0.00000000
Si       2.71602035      -0.00158013      -2.71396494       0.00000000
Si       2.71517327       2.71497319       0.00054851       0.00000000
