10
Lattice="16.28999089631971 0.0 0.0 0.0 16.28999089631971 0.0 0.0 0.0 34.281931910070035" Properties=species:S:1:pos:R:3:initial_magmoms:R:1 pbc="T T T"
Si       1.35875867       1.35607734      -1.35636539       0.00000000
Si      -1.35734537      -1.35764118      -1.35622827       0.00000000
Si       1.35763466      -1.35716877       1.35735957       0.00000000
Si      -1.35726167       1.35765747       1.35759954       0.00000000
Si      -0.00330198      -2.71547784      -2.71139379       0.00000000
Si       0.00194828      -2.71292031       2.71423919       0.00000000
Si       2.71452650      -2.71443528      -0.00034282       0.00000000
Si      -2.71422092      -2.71484253       0.00010285       0.00000000
Si      -2.71397657       0.00114030       2.71550763       0.00000000
Si       2.71571567       0.00239463       2.71403350       0.00000000
