10
Lattice="16.28999089631971 0.0 0.0 0.0 16.28999089631971 0.0 0.0 0.0 34.281931910070035" Properties=species:S:1:pos:R:3:initial_magmoms:R:1 pbc="T T T"
Si      -1.23840099       1.41413490       1.37597467       0.00000000
Si       1.33168307       1.36019871      -1.35938221       0.00000000
Si      -1.38116761      -1.35482301      -1.35591973       0.00000000
Si       1.35263201      -1.28966301       1.47398677       0.00000000
Si      -2.05498254      -0.38589381       2.78623129       0.00000000
Si      -0.44016720      -2.25269523       2.79737293       0.00000000
Si       2.59340872       0.37235682       2.74841830       0.00000000
Si       2.69289176      -2.70071910       0.02272893       0.00000000
Si       2.69197951       0.00739566      -2.71698175       0.00000000
Si       2.70106934       2.72310156      -0.01258148       0.00000000
