10
Lattice="16.28999089631971 0.0 0.0 0.0 16.28999089631971 0.0 0.0 0.0 34.281931910070035" Properties=species:S:1:pos:R:3:initial_magmoms:R:1 pbc="T T T"
Si       1.23840099      -1.41413490      -1.37597467       0.00000000
Si      -1.50265119       1.31163822      -1.33274513       0.00000000
Si      -0.81658155      -1.80002871       1.41025662       0.00000000
Si       0.89220102       1.89908820       1.37847725       0.00000000
Si       0.02155591      -0.05794353       2.75016668       0.00000000
Si      -2.64767529      -2.59576263       0.09286981       0.00000000
Si       2.59103299      -2.70379791       0.09801210       0.00000000
Si       2.57008405      -0.05393619      -2.73535688       0.00000000
Si      -0.14413271       2.66409918      -2.73175727       0.00000000
Si       2.65899487       2.79410985      -0.06739832       0.00000000
