10
Lattice="16.28999089631971 0.0 0.0 0.0 16.28999089631971 0.0 0.0 0.0 34.61538196595647" Properties=species:S:1:pos:R:3:initial_magmoms:R:1 pbc="T T T"
Si       1.42384374       0.09211995       1.83139704       0.00000000
Si       1.34993601       0.39449493      -1.88782014       0.00000000
Si      -1.62245142       1.67194044       0.34113478       0.00000000
Si      -0.83298915      -2.36382561      -0.02876540       0.00000000
Si       2.91628467      -1.52967987       0.96417739       0.00000000
Si      -2.72502052       1.50192171      -1.78875086       0.00000000
Si       3.44722464      -0.37266633      -0.99810048       0.00000000
Si       0.01319490      -0.71268750      -3.56417480       0.00000000
Si      -2.89165093       0.81928926       2.22680877       0.00000000
Si      -2.88051346      -2.10779568      -1.34283526       0.00000000
