10
Lattice="16.28999089631971 0.0 0.0 0.0 16.28999089631971 0.0 0.0 0.0 34.61538196595647" Properties=species:S:1:pos:R:3:initial_magmoms:R:1 pbc="T T T"
Si      -2.01747807      -0.30810906      -1.19412750       0.00000000
Si      -0.59410119       1.80975614       1.46928532       0.00000000
Si       1.26919951       0.85265118      -1.88567399       0.00000000
Si       0.90904390      -1.95126507       1.16238518       0.00000000
Si      -2.96635428       1.57320905       1.63080079       0.00000000
Si       2.89165093      -0.81928926      -2.22680877       0.00000000
Si      -0.29028780       3.72927689       0.08511927       0.00000000
Si       1.60922068       3.15482633      -1.24044291       0.00000000
Si      -3.24281187       1.75217588      -0.70376572       0.00000000
Si      -1.37954538      -0.92356155      -3.40096318       0.00000000
