10
Lattice="16.28999089631971 0.0 0.0 0.0 16.28999089631971 0.0 0.0 0.0 34.61538196595647" Properties=species:S:1:pos:R:3:initial_magmoms:R:1 pbc="T T T"
Si       1.75798422       1.04819471       1.09295983       0.00000000
Si      -0.89078607      -1.84918608       1.09681253       0.00000000
Si       0.84545100      -0.64721214      -2.10543890       0.00000000
Si      -1.79800875       1.67056882      -0.15935311       0.00000000
Si      -2.28229416      -0.38030186       2.52253091       0.00000000
Si       0.45322038       2.34486079       2.55412092       0.00000000
Si       1.57742586       1.52057050      -2.88985851       0.00000000
Si      -1.16017380      -1.16958357      -3.38264336       0.00000000
Si      -1.03669560       3.48196795       1.14397255       0.00000000
Si       2.24023338       2.98430845      -0.79496904       0.00000000
