10
Lattice="16.28999089631971 0.0 0.0 0.0 16.28999089631971 0.0 0.0 0.0 34.61538196595647" Properties=species:S:1:pos:R:3:initial_magmoms:R:1 pbc="T T T"
Si       1.35725022      -1.35755484      -1.35765065       0.00000000
Si      -1.35770634       1.35747828      -1.35747758       0.00000000
Si       1.35762489       1.35814617       1.35720065       0.00000000
Si      -1.35801585      -1.35855994       1.35688912       0.00000000
Si       2.71210581      -0.00029322      -2.71516285       0.00000000
Si       0.00430056       2.71116099       2.71616669       0.00000000
Si       0.00068418       2.71381626      -2.71370900       0.00000000
Si       2.71391400      -2.71462263       0.00034615       0.00000000
Si       2.71094922       0.00073305       2.71810516       0.00000000
Si       2.71467963       2.71451673      -0.00017308       0.00000000
