10
Lattice="16.28999089631971 0.0 0.0 0.0 16.28999089631971 0.0 0.0 0.0 34.61538196595647" Properties=species:S:1:pos:R:3:initial_magmoms:R:1 pbc="T T T"
Si      -1.35411113      -1.35077724      -1.38174297       0.00000000
Si       1.36137485       1.36902463      -1.38253913       0.00000000
Si      -1.42172997       1.30262659       1.42241607       0.00000000
Si       1.23467123      -1.47238209       1.48891226       0.00000000
Si       2.70209072      -2.69747154      -0.02295001       0.00000000
Si      -2.70585438      -2.70646362      -0.00256154       0.00000000
Si       2.69756210       2.72332636      -0.01180385       0.00000000
Si      -0.04488872       2.67202915       2.77148211       0.00000000
Si      -2.71432518       2.73225328       0.00585000       0.00000000
Si       0.00264061      -2.70698490      -2.74337440       0.00000000
