10
Lattice="16.28999089631971 0.0 0.0 0.0 16.28999089631971 0.0 0.0 0.0 34.61538196595647" Properties=species:S:1:pos:R:3:initial_magmoms:R:1 pbc="T T T"
Si      -0.72109314      -2.04804999       0.82021193       0.00000000
Si       0.28991313       1.15828416       2.04923176       0.00000000
Si       2.09357451      -0.70055145      -1.01215433       0.00000000
Si      -2.11939416       0.99877248      -0.72806574       0.00000000
Si      -1.93209174       0.73754604       2.66119744       0.00000000
Si       1.20006801      -0.24293277      -3.18447846       0.00000000
Si       0.16032618       2.05208388      -2.74898210       0.00000000
Si       1.56361194       2.97839844      -0.97719278       0.00000000
Si       1.25079507      -2.67391295       2.03171636       0.00000000
Si       0.81125829       3.31542225       1.30271601       0.00000000
