10
Lattice="16.28999089631971 0.0 0.0 0.0 16.28999089631971 0.0 0.0 0.0 34.61538196595647" Properties=species:S:1:pos:R:3:initial_magmoms:R:1 pbc="T T T"
Si      -0.76053123       1.25620335       1.77836624       0.00000000
Si      -0.07086150       1.08673848      -2.06491253       0.00000000
Si      -1.90105929      -1.41561729      -0.21690010       0.00000000
Si       2.11939416      -0.99877248       0.72806574       0.00000000
Si       2.27972034       1.05331140      -2.02091636       0.00000000
Si       0.18730242      -0.26122644       3.38926317       0.00000000
Si       2.40930729       0.15951168       2.77729749       0.00000000
Si       1.39830102      -3.04682247       1.54827767       0.00000000
Si      -1.44348948      -2.39943555      -2.43328964       0.00000000
Si      -2.40852537      -2.02993437       2.13189334       0.00000000
