10
Lattice="16.28999089631971 0.0 0.0 0.0 16.28999089631971 0.0 0.0 0.0 34.61538196595647" Properties=species:S:1:pos:R:3:initial_magmoms:R:1 pbc="T T T"
Si       2.29952898      -0.32931864      -0.26421936       0.00000000
Si      -1.56095667      -0.51660477      -1.72298160       0.00000000
Si      -0.20136069      -1.20764449       2.05006253       0.00000000
Si      -0.60411465       2.34346311       0.42102713       0.00000000
Si      -3.46046515       0.05784579      -0.39741942       0.00000000
Si       2.92410387       0.70327188       1.79968933       0.00000000
Si       1.16714592       0.16369821       3.39815933       0.00000000
Si      -2.88875131       2.00134053       0.82166578       0.00000000
Si       2.83050153       1.22448672      -1.91803939       0.00000000
Si      -1.07268021       1.02330522      -3.48545937       0.00000000
