10
Lattice="16.28999089631971 0.0 0.0 0.0 16.28999089631971 0.0 0.0 0.0 34.61538196595647" Properties=species:S:1:pos:R:3:initial_magmoms:R:1 pbc="T T T"
Si       1.25618706       1.70126244      -1.27111215       0.00000000
Si      -1.76894739       1.62253287       0.58770028       0.00000000
Si      -0.66280752      -1.46373795      -2.09488947       0.00000000
Si      -0.48224916      -1.93611374       1.88792887       0.00000000
Si       2.16103140       0.68165505       1.94863736       0.00000000
Si      -0.37494693       3.50057439      -1.43508531       0.00000000
Si      -2.24023338      -2.98430845       0.79496904       0.00000000
Si      -3.27692898       0.49765950       1.93894159       0.00000000
Si      -1.78701300      -0.63944766       3.34908996       0.00000000
Si      -2.63150289       2.38544244      -1.49891611       0.00000000
