10
Lattice="16.28999089631971 0.0 0.0 0.0 16.28999089631971 0.0 0.0 0.0 34.61538196595647" Properties=species:S:1:pos:R:3:initial_magmoms:R:1 pbc="T T T"
Si       1.35332433      -1.35301482      -1.35896604       0.00000000
Si       1.34597754       1.35707103       1.36869297       0.00000000
Si      -1.36132272       1.36145304      -1.35778912       0.00000000
Si      -1.38171780      -1.35361755       1.37211989       0.00000000
Si       2.70664866      -2.71042794       0.00193846       0.00000000
Si      -2.71790505      -2.70791928       0.00138462       0.00000000
Si       2.70764235       2.71858923      -0.00010385       0.00000000
Si       2.71037907       0.00335574      -2.71633977       0.00000000
Si      -0.00430056      -2.71116099      -2.71616669       0.00000000
Si      -0.00389331       2.71829601      -2.71613208       0.00000000
