10
Lattice="16.28999089631971 0.0 0.0 0.0 16.28999089631971 0.0 0.0 0.0 34.61538196595647" Properties=species:S:1:pos:R:3:initial_magmoms:R:1 pbc="T T T"
Si       2.20012740      -0.72519822      -0.22565780       0.00000000
Si      -0.89992476      -0.12916341       2.15591642       0.00000000
Si      -0.56733183       2.23897905      -0.49084639       0.00000000
Si      -1.49105628      -1.78564464      -0.47807331       0.00000000
Si      -3.09746205       0.27693000       1.24594675       0.00000000
Si       1.67878224      -2.88233631       0.52085794       0.00000000
Si      -0.54322263      -3.30307443       1.13282362       0.00000000
Si      -2.88233631       2.11133061      -0.21984241       0.00000000
Si       3.25107675       0.75583971       1.32272371       0.00000000
Si      -0.73052505      -3.04184799      -2.25643955       0.00000000
