10
Lattice="16.28999089631971 0.0 0.0 0.0 16.28999089631971 0.0 0.0 0.0 34.61538196595647" Properties=species:S:1:pos:R:3:initial_magmoms:R:1 pbc="T T T"
Si      -1.23564537      -1.29005397      -1.51795458       0.00000000
Si       2.25857592      -0.72208683      -0.07975388       0.00000000
Si      -0.28784430      -1.19382894       2.06408176       0.00000000
Si      -0.67048011       2.24298639      -0.64786185       0.00000000
Si      -2.44639962      -0.39087855       2.41376655       0.00000000
Si       3.06875907       1.05596667       1.28751985       0.00000000
Si       0.10480986      -3.36341259       1.23711983       0.00000000
Si       0.25023069       3.40667883       1.11243515       0.00000000
Si      -1.42755786      -3.41565462      -0.56610027       0.00000000
Si       2.91535614      -0.40505085      -2.35114729       0.00000000
