10
Lattice="16.28999089631971 0.0 0.0 0.0 16.28999089631971 0.0 0.0 0.0 34.61538196595647" Properties=species:S:1:pos:R:3:initial_magmoms:R:1 pbc="T T T"
Si      -0.19191249      -2.12560065       0.95185431       0.00000000
Si       0.89992476       0.12916341      -2.15591642       0.00000000
Si       1.23564537       1.29005397       1.51795458       0.00000000
Si      -2.19753729       0.40609341      -0.90996967       0.00000000
Si      -0.59113152      -1.65648123      -2.63398973       0.00000000
Si       0.35670213      -3.17391102      -1.02309280       0.00000000
Si      -3.33669699       0.09668115       1.09734284       0.00000000
Si       0.33259293       2.36814246      -2.64676282       0.00000000
Si      -2.56272651      -2.27454012       1.18765442       0.00000000
Si       0.56516526       3.53304036       0.87009273       0.00000000
