10
Lattice="16.28999089631971 0.0 0.0 0.0 16.28999089631971 0.0 0.0 0.0 34.61538196595647" Properties=species:S:1:pos:R:3:initial_magmoms:R:1 pbc="T T T"
Si       1.34941473       1.36054080      -1.38326605       0.00000000
Si      -1.36604682      -1.35536058      -1.38378528       0.00000000
Si      -1.35073422       1.42987104       1.42871607       0.00000000
Si       1.35309627      -1.47057975       1.47783533       0.00000000
Si       2.68099191       2.72769534      -0.01048847       0.00000000
Si       2.69988831      -2.71655298      -0.01685770       0.00000000
Si      -2.72543429      -2.70376533       0.00546923       0.00000000
Si      -2.73141435       2.70821250      -0.02488847       0.00000000
Si       2.70783783       0.00237834      -2.74517440       0.00000000
Si      -0.00741195      -2.71217097      -2.74333978       0.00000000
