10
Lattice="16.28999089631971 0.0 0.0 0.0 16.28999089631971 0.0 0.0 0.0 34.61538196595647" Properties=species:S:1:pos:R:3:initial_magmoms:R:1 pbc="T T T"
Si       0.39053646       1.85517036      -1.38980836       0.00000000
Si      -2.07146409      -1.06005546       0.40939635       0.00000000
Si       1.06973172      -1.75150569      -1.32559679       0.00000000
Si       0.74613087       0.91657314       2.14252026       0.00000000
Si      -1.18473586      -3.09553073       1.12988131       0.00000000
Si       2.71772586       1.53463203      -1.67912389       0.00000000
Si       3.66555951       0.01720224      -0.06822696       0.00000000
Si       1.11132009       3.59720667       0.04489618       0.00000000
Si       3.11694489       1.06551261       1.90672015       0.00000000
Si      -0.22465539      -3.70976147      -1.03095050       0.00000000
