10
Lattice="16.28999089631971 0.0 0.0 0.0 16.28999089631971 0.0 0.0 0.0 34.61538196595647" Properties=species:S:1:pos:R:3:initial_magmoms:R:1 pbc="T T T"
Si       1.76300154       1.41460731       0.52809256       0.00000000
Si       0.73119294      -0.52248546      -2.15837412       0.00000000
Si      -2.15368461       0.71807949      -0.76053498       0.00000000
Si      -0.51818490      -1.07950572       2.20960491       0.00000000
Si      -3.35373633      -1.17954261       0.10401928       0.00000000
Si       0.54582903       0.55592883       3.51093631       0.00000000
Si       3.53460420      -0.14188590       1.03558896       0.00000000
Si       0.75453651       2.71902906       2.40452424       0.00000000
Si      -1.12640463      -1.48675572      -3.27669389       0.00000000
Si      -2.83318938      -1.20715416       2.48060889       0.00000000
