10
Lattice="16.28999089631971 0.0 0.0 0.0 16.28999089631971 0.0 0.0 0.0 34.61538196595647" Properties=species:S:1:pos:R:3:initial_magmoms:R:1 pbc="T T T"
Si      -1.06401393      -1.63543455      -1.30133140       0.00000000
Si       2.11937787      -0.99026910      -0.24985397       0.00000000
Si      -0.83144160      -0.47053665       2.21552415       0.00000000
Si       0.20870748       2.16310023      -1.10641207       0.00000000
Si       1.21717251       0.85867848      -2.98284375       0.00000000
Si       3.29712858       0.37224279       1.21534674       0.00000000
Si      -0.54582903      -0.55592883      -3.51093631       0.00000000
Si       1.51685964       3.52601937       0.42331174       0.00000000
Si       2.98877517      -0.69781473      -2.47534735       0.00000000
Si      -3.37901841      -1.76308299      -1.03032742       0.00000000
