10
Lattice="16.28999089631971 0.0 0.0 0.0 16.28999089631971 0.0 0.0 0.0 34.61538196595647" Properties=species:S:1:pos:R:3:initial_magmoms:R:1 pbc="T T T"
Si      -0.92071080      -1.16369244      -1.76029700       0.00000000
Si      -0.33816411       2.27501253       0.29755399       0.00000000
Si       2.25978138      -0.18298557      -0.61695030       0.00000000
Si       0.17614377      -1.00111824       2.14355873       0.00000000
Si       1.34467434       2.48158602       1.89107399       0.00000000
Si       0.37939410       0.97101432       3.41699011       0.00000000
Si      -0.25023069      -3.40667883      -1.11243515       0.00000000
Si       3.20611635       1.44058986       0.83765810       0.00000000
Si       2.81852838      -2.35071216       0.17508470       0.00000000
Si      -3.26469519      -0.81550998      -1.53661228       0.00000000
