10
Lattice="16.28999089631971 0.0 0.0 0.0 16.28999089631971 0.0 0.0 0.0 34.61538196595647" Properties=species:S:1:pos:R:3:initial_magmoms:R:1 pbc="T T T"
Si      -1.35633798      -1.35697329      -1.35692373       0.00000000
Si       1.35827649       1.35848729      -1.35661219       0.00000000
Si      -1.35746199       1.35948195       1.36017758       0.00000000
Si       1.35848826      -1.35534429       1.36671989       0.00000000
Si      -2.71344159       0.00008145      -2.71436669       0.00000000
Si      -2.71365336       2.71454998      -0.00006923       0.00000000
Si       0.00141723      -2.71441899      -2.71485131       0.00000000
Si       0.00161271       2.71555507      -2.71460900       0.00000000
Si      -2.71593396      -2.71505430       0.00024231       0.00000000
Si       2.71678104       0.00050499      -2.71422823       0.00000000
