10
Lattice="16.28999089631971 0.0 0.0 0.0 16.28999089631971 0.0 0.0 0.0 34.61538196595647" Properties=species:S:1:pos:R:3:initial_magmoms:R:1 pbc="T T T"
Si      -1.35619137       1.35506803      -1.36024681       0.00000000
Si       1.35746199      -1.35948195      -1.36017758       0.00000000
Si      -1.37106414      -1.34962650       1.36000450       0.00000000
Si       1.35826020       1.36892593       1.36363912       0.00000000
Si      -0.14941188       2.58654968       2.75434748       0.00000000
Si       2.71277370       2.71436102       0.00096923       0.00000000
Si      -2.71290402      -2.71524978      -0.00065769       0.00000000
Si      -2.71178001       2.71686968       0.00041538       0.00000000
Si       0.00182448       2.71362797      -2.71713593       0.00000000
Si       2.71595025      -2.71482624       0.00654231       0.00000000
