10
Lattice="16.28999089631971 0.0 0.0 0.0 16.28999089631971 0.0 0.0 0.0 34.61538196595647" Properties=species:S:1:pos:R:3:initial_magmoms:R:1 pbc="T T T"
Si      -1.36379880      -1.34507996       1.38106105       0.00000000
Si       1.35138582       1.36767582       1.38074951       0.00000000
Si      -1.48095648       1.32848208      -1.37004989       0.00000000
Si       1.30991148      -1.48600312      -1.48266418       0.00000000
Si       2.70146844      -2.70945773       0.02101847       0.00000000
Si      -2.72386719      -2.69681669      -0.00370731       0.00000000
Si       2.69913897       2.73391812      -0.00081346       0.00000000
Si      -2.72530071       2.71298547       0.03496502       0.00000000
Si      -0.00677664      -2.70526472       2.74206940       0.00000000
Si       2.70917361       0.01096317       2.74151555       0.00000000
