10
Lattice="16.28999089631971 0.0 0.0 0.0 16.28999089631971 0.0 0.0 0.0 34.61538196595647" Properties=species:S:1:pos:R:3:initial_magmoms:R:1 pbc="T T T"
Si      -1.75497057       1.60352244       0.05600772       0.00000000
Si       1.11356811       0.72166329       1.99021250       0.00000000
Si      -1.22500800      -2.07542745       0.02104616       0.00000000
Si       1.47325131      -0.03111390      -2.00862789       0.00000000
Si       1.93885209       2.57067603      -0.92585814       0.00000000
Si      -2.11851450      -1.61780877      -2.15127796       0.00000000
Si      -0.35062596      -0.77059845      -3.47839783       0.00000000
Si      -3.15825633       0.67720788      -1.71578160       0.00000000
Si       1.31921307       3.06629928       1.57815076       0.00000000
Si      -3.31858251      -1.37487600       1.03320050       0.00000000
