10
Lattice="16.28999089631971 0.0 0.0 0.0 16.28999089631971 0.0 0.0 0.0 34.61538196595647" Properties=species:S:1:pos:R:3:initial_magmoms:R:1 pbc="T T T"
Si      -0.89350650       0.45761868      -2.17232412       0.00000000
Si       1.22500800       2.07542745      -0.02104616       0.00000000
Si      -2.09357451       0.70055145       1.01215433       0.00000000
Si       1.25043669      -1.54625399       1.84915474       0.00000000
Si      -2.81466765      -1.34749854       1.83236627       0.00000000
Si      -0.52996257       3.67894989       0.03496156       0.00000000
Si      -0.84277944      -1.97336150       3.04387070       0.00000000
Si      -1.93324833       2.75263533      -1.73682776       0.00000000
Si       0.87438204       1.30482900      -3.49944400       0.00000000
Si       2.69825931       2.04431355      -2.02967406       0.00000000
