10
Lattice="16.28999089631971 0.0 0.0 0.0 16.28999089631971 0.0 0.0 0.0 34.61538196595647" Properties=species:S:1:pos:R:3:initial_magmoms:R:1 pbc="T T T"
Si      -2.10114936      -0.71420247       0.68427725       0.00000000
Si       1.17978696      -1.79263305       0.89190043       0.00000000
Si       1.14701148       1.88928162       0.75115421       0.00000000
Si       0.62130060       0.43082163      -2.24131262       0.00000000
Si       3.28465044       1.21313259       0.13465391       0.00000000
Si       2.93057100       0.15307713      -1.94971248       0.00000000
Si       3.32167761      -0.81718785       1.31877756       0.00000000
Si       0.34868745       3.63539043      -0.50836178       0.00000000
Si      -2.44926666       0.47097648       2.71834746       0.00000000
Si       1.42003188      -3.29708623      -0.89584659       0.00000000
