10
Lattice="16.28999089631971 0.0 0.0 0.0 16.28999089631971 0.0 0.0 0.0 34.61538196595647" Properties=species:S:1:pos:R:3:initial_magmoms:R:1 pbc="T T T"
Si      -1.78650801       0.54638289       1.54592382       0.00000000
Si      -0.37475145      -2.36575502      -0.50850025       0.00000000
Si       2.20149576       0.17585055       1.10665438       0.00000000
Si       0.20623140       1.13762844      -2.22563184       0.00000000
Si       3.43311750      -1.43940558      -0.15590777       0.00000000
Si       1.06192881      -0.76593951      -3.49155168       0.00000000
Si       1.95030396      -0.70675142       3.31293621       0.00000000
Si       2.25334683       2.44418418      -2.10672794       0.00000000
Si      -1.20829446       2.53014651       2.77213980       0.00000000
Si      -0.15837138      -2.72709980      -2.92468987       0.00000000
