10
Lattice="16.28999089631971 0.0 0.0 0.0 16.28999089631971 0.0 0.0 0.0 34.61538196595647" Properties=species:S:1:pos:R:3:initial_magmoms:R:1 pbc="T T T"
Si      -0.18420732      -1.44492300       1.81744703       0.00000000
Si      -1.56216213       1.12936941      -1.37703528       0.00000000
Si       1.17999873      -1.56706542      -1.37208528       0.00000000
Si       0.89230104       1.85648985       1.28052754       0.00000000
Si      -2.53478916      -1.41149592       1.77345086       0.00000000
Si      -0.20049732       2.49088761      -2.74583209       0.00000000
Si      -1.05135660       3.33961290       1.23597752       0.00000000
Si       2.51419860      -0.22802742      -2.74794363       0.00000000
Si      -2.90895417       2.37534264       0.11765775       0.00000000
Si       2.63409300       2.70205488      -0.01675385       0.00000000
