10
Lattice="16.28999089631971 0.0 0.0 0.0 16.28999089631971 0.0 0.0 0.0 34.61538196595647" Properties=species:S:1:pos:R:3:initial_magmoms:R:1 pbc="T T T"
Si       1.74179196       0.84556503      -1.29728139       0.00000000
Si      -0.89230104      -1.85648985      -1.28052754       0.00000000
Si       1.26247500      -0.22540473       2.06584715       0.00000000
Si      -1.94365764       1.48312305      -0.04455002       0.00000000
Si       0.32677740      -2.37509829       2.30870881       0.00000000
Si       0.26989272       2.00679768      -2.67241283       0.00000000
Si      -1.07650836      -3.30141285       0.53691949       0.00000000
Si      -2.45446317      -0.72712044      -2.65756282       0.00000000
Si       0.85975362       1.86372261       3.14941306       0.00000000
Si      -1.12516659       3.36711042      -1.27350061       0.00000000
