10
Lattice="16.28999089631971 0.0 0.0 0.0 16.28999089631971 0.0 0.0 0.0 34.61538196595647" Properties=species:S:1:pos:R:3:initial_magmoms:R:1 pbc="T T T"
Si      -0.63501678       2.12830479      -0.76209268       0.00000000
Si       2.29732983       0.50464791      -0.16113469       0.00000000
Si      -0.65678022      -0.31703598       2.27139340       0.00000000
Si      -1.05094935      -1.48103793      -1.54838152       0.00000000
Si       3.09565386      -1.24146090       1.09838130       0.00000000
Si      -3.25107675      -0.75583971      -1.32272371       0.00000000
Si       0.54273393       3.49081668       0.70310803       0.00000000
Si       2.77558794      -0.35528490      -2.30614727       0.00000000
Si       1.94864238      -3.13074252       0.34722709       0.00000000
Si       2.56676643       2.40246549       1.19364288       0.00000000
