10
Lattice="16.28999089631971 0.0 0.0 0.0 16.28999089631971 0.0 0.0 0.0 34.61538196595647" Properties=species:S:1:pos:R:3:initial_magmoms:R:1 pbc="T T T"
Si      -1.72209735      -1.01245608       1.38236748       0.00000000
Si       1.01750598       1.90560420       1.16840968       0.00000000
Si       1.81249056      -1.67668083      -0.11623852       0.00000000
Si      -1.51597998      -0.76152492      -2.05383561       0.00000000
Si       0.11515401      -2.56083687      -1.88986245       0.00000000
Si      -0.22434588      -2.19594087       2.73490197       0.00000000
Si       2.46956400       0.56487204       2.72129466       0.00000000
Si      -2.90998044      -2.63956644      -0.03105001       0.00000000
Si       1.01999835      -3.58044426       1.32988707       0.00000000
Si       3.73169691      -0.72422082       1.28389358       0.00000000
