10
Lattice="16.28999089631971 0.0 0.0 0.0 16.28999089631971 0.0 0.0 0.0 34.61538196595647" Properties=species:S:1:pos:R:3:initial_magmoms:R:1 pbc="T T T"
Si      -1.35677781      -1.35764118       1.35699296       0.00000000
Si       1.35716877      -1.35746199      -1.35723527       0.00000000
Si       1.35874890       1.35689184       1.35720065       0.00000000
Si      -1.35795069       1.35765747      -1.35744296       0.00000000
Si      -0.00107514       2.71454931      -2.71370900       0.00000000
Si       2.71396287      -2.71437012       0.00017308       0.00000000
Si       2.71467963      -0.00013032       2.71381285       0.00000000
Si       2.71557558      -0.00043983      -2.71395131       0.00000000
Si      -2.71459818      -2.71534752       0.00048462       0.00000000
Si       2.71477737       2.71528236       0.00045000       0.00000000
