10
Lattice="16.28999089631971 0.0 0.0 0.0 16.28999089631971 0.0 0.0 0.0 34.61538196595647" Properties=species:S:1:pos:R:3:initial_magmoms:R:1 pbc="T T T"
Si      -1.35625653       1.35672894       1.35560835       0.00000000
Si      -1.35697329      -1.35751086      -1.35803142       0.00000000
Si       1.35868374       1.35715248      -1.35789296       0.00000000
Si       1.35972630      -1.35845568       1.35865450       0.00000000
Si      -2.71130760       0.01420488       2.71225515       0.00000000
Si      -2.71218726       2.71375110      -0.00100385       0.00000000
Si      -2.71275741      -2.71448415      -0.00051923       0.00000000
Si      -2.71376739      -0.00060273      -2.71543977       0.00000000
Si       0.00110772       2.71477737      -2.71516285       0.00000000
Si       2.71601541       2.71420722      -0.00041538       0.00000000
