10
Lattice="16.28999089631971 0.0 0.0 0.0 16.28999089631971 0.0 0.0 0.0 34.61538196595647" Properties=species:S:1:pos:R:3:initial_magmoms:R:1 pbc="T T T"
Si       0.63185652      -1.33011108       1.78906240       0.00000000
Si       1.64843397       1.45127610      -0.82204655       0.00000000
Si      -0.94633497      -1.62357543      -1.45460839       0.00000000
Si      -1.86144201       1.04099616       1.05341589       0.00000000
Si       0.37993167       3.46890663      -0.41545405       0.00000000
Si      -3.20611635      -1.44058986      -0.83765810       0.00000000
Si      -0.83199546      -3.21663969       1.57157383       0.00000000
Si      -3.54428046       0.83442267      -0.54010411       0.00000000
Si       2.52310923      -2.48269374       1.02066972       0.00000000
Si       3.57247845       1.28161575       0.63692338       0.00000000
