10
Lattice="16.28999089631971 0.0 0.0 0.0 16.28999089631971 0.0 0.0 0.0 34.61538196595647" Properties=species:S:1:pos:R:3:initial_magmoms:R:1 pbc="T T T"
Si      -0.03665250      -2.09367225       1.07127744       0.00000000
Si      -1.29660255       1.69199343       1.01907741       0.00000000
Si      -1.24507728      -0.00526167      -2.01247020       0.00000000
Si       2.23795278       0.40189059      -0.74866190       0.00000000
Si      -3.37504365       0.56591460       0.97026970       0.00000000
Si       2.12722965      -2.83028976       0.79528885       0.00000000
Si       2.21350149      -0.86579721      -2.80273981       0.00000000
Si      -3.44435760       0.53908497      -1.39946606       0.00000000
Si      -0.27979704       1.50531003      -3.53838632       0.00000000
Si       3.76711137      -0.83131128       0.72827343       0.00000000
