10
Lattice="16.28999089631971 0.0 0.0 0.0 16.28999089631971 0.0 0.0 0.0 34.61538196595647" Properties=species:S:1:pos:R:3:initial_magmoms:R:1 pbc="T T T"
Si      -0.94692141      -1.78367355       1.29887513       0.00000000
Si       1.80064773       0.90510498       1.45395559       0.00000000
Si       1.79152533      -1.06394877      -1.40085068       0.00000000
Si      -1.88545347       1.84480992       0.18001051       0.00000000
Si      -2.21275215      -0.44461926       2.82581586       0.00000000
Si       0.53496360       2.28058371       2.86144896       0.00000000
Si       3.28013811       2.11356234       0.12042698       0.00000000
Si      -0.78723054       3.59303643       1.45089559       0.00000000
Si      -3.71840427       0.89173089       1.31505090       0.00000000
Si       2.94099660      -2.79223632      -0.00816923       0.00000000
