10
Lattice="16.28999089631971 0.0 0.0 0.0 16.28999089631971 0.0 0.0 0.0 34.61538196595647" Properties=species:S:1:pos:R:3:initial_magmoms:R:1 pbc="T T T"
Si       1.36179513       1.36440153      -1.34862988       0.00000000
Si      -1.35900954       1.35607734       1.36332758       0.00000000
Si       1.35764118      -1.35891180       1.36308527       0.00000000
Si      -1.38592062      -1.36080144      -1.38426298       0.00000000
Si       2.62747926      -0.01107720      -2.75612325       0.00000000
Si      -2.71231758      -2.71264338       0.00238846       0.00000000
Si      -2.71503801       2.71384884       0.00103846       0.00000000
Si       2.71494027       2.71427238       0.00661154       0.00000000
Si       2.71283886      -2.71808424       0.00360000       0.00000000
Si       2.71410948      -0.00055386       2.72007824       0.00000000
