10
Lattice="16.28999089631971 0.0 0.0 0.0 16.28999089631971 0.0 0.0 0.0 34.61538196595647" Properties=species:S:1:pos:R:3:initial_magmoms:R:1 pbc="T T T"
Si       1.50798159       1.12487337      -1.35124131       0.00000000
Si       1.48991598      -1.13710716       1.41014837       0.00000000
Si      -0.76131315      -1.81139913      -1.30332566       0.00000000
Si      -1.22868954       1.56871071       1.39279567       0.00000000
Si      -2.65995500      -2.52588016      -0.09087927       0.00000000
Si       2.79467982      -2.43377324      -0.05101272       0.00000000
Si       0.12792537      -2.49290105       2.76184518       0.00000000
Si      -2.58954962       0.22387347       2.76108364       0.00000000
Si       1.03669560      -3.48196795      -1.14397255       0.00000000
Si       3.27692898      -0.49765950      -1.93894159       0.00000000
