10
Lattice="16.28999089631971 0.0 0.0 0.0 16.28999089631971 0.0 0.0 0.0 34.61538196595647" Properties=species:S:1:pos:R:3:initial_magmoms:R:1 pbc="T T T"
Si      -0.30867921      -2.13306147       0.85365041       0.00000000
Si      -2.08894815       1.02071511       0.06161541       0.00000000
Si       1.89618858       0.58549518       1.29942755       0.00000000
Si       0.35590392      -0.01241298      -2.35779344       0.00000000
Si       1.24784658      -2.26828476      -1.74139699       0.00000000
Si       3.10278888      -1.44427140       0.79016577       0.00000000
Si      -1.46282571       3.19573962      -0.66883878       0.00000000
Si      -3.39710031      -0.34220403      -1.46810840       0.00000000
Si      -1.25675721      -1.99513404       2.99717452       0.00000000
Si      -1.48642992      -3.49557336      -0.61155029       0.00000000
