10
Lattice="16.28999089631971 0.0 0.0 0.0 16.28999089631971 0.0 0.0 0.0 34.61538196595647" Properties=species:S:1:pos:R:3:initial_magmoms:R:1 pbc="T T T"
Si      -0.35590392       0.01241298       2.35779344       0.00000000
Si       1.43547480       1.82663028      -0.73145805       0.00000000
Si      -2.06671230       0.66728727      -1.23272367       0.00000000
Si       0.89194266      -2.25587178       0.61639645       0.00000000
Si      -2.74453920      -1.63421280      -0.98674663       0.00000000
Si      -0.97293654      -3.19070601      -0.47925023       0.00000000
Si      -2.44485207       1.03312809       2.41940886       0.00000000
Si       0.27448650       3.63526011       0.49423870       0.00000000
Si      -1.68945219      -0.24286761      -3.41204011       0.00000000
Si      -3.75300423      -0.32979105       0.88968504       0.00000000
