10
Lattice="16.28999089631971 0.0 0.0 0.0 16.28999089631971 0.0 0.0 0.0 34.61538196595647" Properties=species:S:1:pos:R:3:initial_magmoms:R:1 pbc="T T T"
Si      -0.24024492       1.50445318       1.78774702       0.00000000
Si       0.86693751      -2.12493343       0.71733496       0.00000000
Si       1.88532315       1.14089296      -0.99771971       0.00000000
Si      -1.88687070      -0.61543687      -1.46547763       0.00000000
Si       1.39652541      -2.56842868      -1.55402383       0.00000000
Si      -0.72588240      -2.42406670      -2.69117437       0.00000000
Si      -1.42003188       3.29708623       0.89584659       0.00000000
Si       3.38999365       1.29165691       0.83634271       0.00000000
Si       1.90164573       2.47989838       2.21462415       0.00000000
Si       1.51053912       3.45016336      -1.05386589       0.00000000
