10
Lattice="16.28999089631971 0.0 0.0 0.0 16.28999089631971 0.0 0.0 0.0 34.61538196595647" Properties=species:S:1:pos:R:3:initial_magmoms:R:1 pbc="T T T"
Si      -0.14072931       0.01270620       2.32764343       0.00000000
Si      -0.03702717       2.03032044      -1.18412365       0.00000000
Si       1.48834792      -1.18824147      -1.37828143       0.00000000
Si      -2.14189065      -0.97544520      -0.42687713       0.00000000
Si      -0.39110661       0.97026498      -3.26849004       0.00000000
Si      -0.01632258      -1.33900542      -3.21234386       0.00000000
Si      -2.17466613       2.70646947      -0.56762335       0.00000000
Si      -1.03436613      -2.15417331       2.65399743       0.00000000
Si      -3.32167761       0.81718785      -1.31877756       0.00000000
Si      -1.90164573      -2.47989838      -2.21462415       0.00000000
