10
Lattice="16.28999089631971 0.0 0.0 0.0 16.28999089631971 0.0 0.0 0.0 34.61538196595647" Properties=species:S:1:pos:R:3:initial_magmoms:R:1 pbc="T T T"
Si       1.35795069      -1.35570267      -1.36017758       0.00000000
Si      -1.35972630       1.35845568      -1.35865450       0.00000000
Si       1.34382726       1.36660068       1.37326220       0.00000000
Si      -1.34975682      -1.36355445       1.39098529       0.00000000
Si      -2.59913466       0.21142791       2.72873209       0.00000000
Si       2.71106325      -2.71634121       0.00045000       0.00000000
Si       2.71429845       0.00013032      -2.71668593       0.00000000
Si      -0.00060273      -2.71516833      -2.71599362       0.00000000
Si      -2.71598283       2.71518462      -0.00304616       0.00000000
Si      -0.00104256       2.71560816      -2.71654746       0.00000000
