10
Lattice="16.28999089631971 0.0 0.0 0.0 16.28999089631971 0.0 0.0 0.0 34.61538196595647" Properties=species:S:1:pos:R:3:initial_magmoms:R:1 pbc="T T T"
Si      -1.38743559      -1.77714126       0.55401950       0.00000000
Si       2.12850027      -0.56550735       0.80968885       0.00000000
Si      -1.20660030       2.02976658       0.50926178       0.00000000
Si      -1.85494230      -0.82401336      -2.53156276       0.00000000
Si      -3.41146809      -0.68879007       0.06348465       0.00000000
Si      -3.10278888       1.44427140      -0.79016577       0.00000000
Si       0.28140975       3.55762197      -0.47090792       0.00000000
Si       1.60982667       1.01853225      -3.29860544       0.00000000
Si       2.99663251      -2.31726879      -0.49545024       0.00000000
Si       1.98964431      -1.48193388       2.93888219       0.00000000
