10
Lattice="16.28999089631971 0.0 0.0 0.0 16.28999089631971 0.0 0.0 0.0 34.61538196595647" Properties=species:S:1:pos:R:3:initial_magmoms:R:1 pbc="T T T"
Si       1.83686040       1.42319214      -0.19280779       0.00000000
Si      -1.89125271       1.15258266       0.76839268       0.00000000
Si      -0.62745822      -1.21212261      -1.91516631       0.00000000
Si       0.17951580      -1.69130925       1.65385464       0.00000000
Si       2.87974620      -0.07195293      -1.74340469       0.00000000
Si      -3.35510469      -0.73394595       0.55090411       0.00000000
Si       1.33527501      -0.24350292       3.21916309       0.00000000
Si       2.92843701       0.80547534       1.82295088       0.00000000
Si      -2.11611987      -1.82094507       2.21722030       0.00000000
Si      -2.91069720      -1.30860828      -1.68324312       0.00000000
