10
Lattice="16.28999089631971 0.0 0.0 0.0 16.28999089631971 0.0 0.0 0.0 34.61538196595647" Properties=species:S:1:pos:R:3:initial_magmoms:R:1 pbc="T T T"
Si      -1.59316200      -1.04897826       1.39621221       0.00000000
Si      -1.09157661       0.61771680      -2.01575866       0.00000000
Si       1.14278815       1.91840814       0.86123118       0.00000000
Si       1.26279333      -2.02082337      -0.54585026       0.00000000
Si       2.06121347      -1.16017380      -2.58071663       0.00000000
Si      -2.92843701      -0.80547534      -1.82295088       0.00000000
Si      -0.04869081      -0.87742827      -3.56635557       0.00000000
Si      -2.74892121      -2.49678459      -0.16909624       0.00000000
Si       2.38367402       1.05700923       2.68618976       0.00000000
Si      -0.31646583      -1.98083142       3.23283617       0.00000000
