10
Lattice="16.28999089631971 0.0 0.0 0.0 16.28999089631971 0.0 0.0 0.0 34.61538196595647" Properties=species:S:1:pos:R:3:initial_magmoms:R:1 pbc="T T T"
Si       1.41332040       1.13397948      -1.38485628       0.00000000
Si       1.43368290      -1.27886274       1.28462947       0.00000000
Si      -1.31176854       1.45862289       1.28730177       0.00000000
Si      -1.26962631      -1.41014385      -1.44369212       0.00000000
Si       2.07509255      -0.69025617      -2.70653119       0.00000000
Si      -0.39139983       1.78016698      -2.98743517       0.00000000
Si      -2.24683083       0.15530886      -2.92903899       0.00000000
Si       0.05483214      -2.60942994       2.64910974       0.00000000
Si      -2.66165568       0.10674837       2.65257128       0.00000000
Si       0.36859383      -2.31893037      -2.96015824       0.00000000
