10
Lattice="16.28999089631971 0.0 0.0 0.0 16.28999089631971 0.0 0.0 0.0 34.61538196595647" Properties=species:S:1:pos:R:3:initial_magmoms:R:1 pbc="T T T"
Si       1.31176854      -1.45862289      -1.28730177       0.00000000
Si      -1.34988714      -1.35187452       1.36526950       0.00000000
Si       1.36629117       1.36138203       1.36250027       0.00000000
Si      -1.39155696       1.22345460      -1.50368265       0.00000000
Si       0.18228510       2.36461472      -2.74712467       0.00000000
Si      -2.70303228      -2.70174537       0.01002808       0.00000000
Si      -2.70146844       2.70945773      -0.02101847       0.00000000
Si       2.72508894      -0.32464341      -2.67215806       0.00000000
Si      -2.70824508       0.00419301       2.72105093       0.00000000
Si       0.00633681      -2.70848943       2.72153554       0.00000000
