10
Lattice="16.28999089631971 0.0 0.0 0.0 16.28999089631971 0.0 0.0 0.0 34.61538196595647" Properties=species:S:1:pos:R:3:initial_magmoms:R:1 pbc="T T T"
Si       1.35659788       1.35505415      -1.35681989       0.00000000
Si      -1.35715248       1.35721360       1.35706219       0.00000000
Si      -1.35749457      -1.35681039      -1.35733912       0.00000000
Si       1.35797888      -1.35804843       1.35668142       0.00000000
Si      -2.71371852      -0.00019548      -2.71360515       0.00000000
Si      -2.71410948       0.00053757       2.71339746       0.00000000
Si      -2.71399545       2.71407920      -0.00010385       0.00000000
Si       0.00125433       2.71452717       2.71440131       0.00000000
Si       0.00245979       2.71306107      -2.71637439       0.00000000
Si      -2.71454931      -2.71502172      -0.00013846       0.00000000
