10
Lattice="16.28999089631971 0.0 0.0 0.0 16.28999089631971 0.0 0.0 0.0 34.61538196595647" Properties=species:S:1:pos:R:3:initial_magmoms:R:1 pbc="T T T"
Si       1.54617579       1.60619400      -0.61459645       0.00000000
Si      -1.86360858       0.22507893      -1.45408916       0.00000000
Si      -0.63793269       0.61545249       2.20683568       0.00000000
Si       1.39068286      -2.00352339      -0.16868085       0.00000000
Si       2.64874490       1.77621273       1.51528919       0.00000000
Si      -3.35161863      -1.30277646      -0.47391946       0.00000000
Si       1.37954538       0.92356155       3.40096318       0.00000000
Si       2.50625627       0.99196326      -2.77542826       0.00000000
Si      -0.01651806      -3.89805039      -0.17349239       0.00000000
Si       0.65944756       3.64166927      -1.33508141       0.00000000
