10
Lattice="16.28999089631971 0.0 0.0 0.0 16.28999089631971 0.0 0.0 0.0 34.61538196595647" Properties=species:S:1:pos:R:3:initial_magmoms:R:1 pbc="T T T"
Si       2.18722572      -0.57878370       0.55422719       0.00000000
Si      -1.38177386      -1.70807166      -0.89442735       0.00000000
Si      -1.02091778       0.51689799       2.10894332       0.00000000
Si       0.33576785       2.07187623      -1.23213521       0.00000000
Si       3.32638542      -0.26937144      -1.45308532       0.00000000
Si      -3.51941282      -1.03192263      -0.27792706       0.00000000
Si      -0.67122035       2.90721114       2.20219722       0.00000000
Si       2.93764086       1.32219414       1.85050474       0.00000000
Si      -3.20625386      -0.34689555       1.89114322       0.00000000
Si      -0.53236439       3.82363767       0.07300388       0.00000000
