10
Lattice="16.28999089631971 0.0 0.0 0.0 16.28999089631971 0.0 0.0 0.0 34.61538196595647" Properties=species:S:1:pos:R:3:initial_magmoms:R:1 pbc="T T T"
Si      -1.66423527      -1.10491812      -1.27950435       0.00000000
Si       1.39699782      -1.28150172       1.42989300       0.00000000
Si      -1.30189680       1.41938028       1.44399185       0.00000000
Si       0.91020375       1.71194868      -1.46836598       0.00000000
Si      -3.36425152       0.71249202      -1.31048513       0.00000000
Si      -2.53621128       2.66577705      -0.08680850       0.00000000
Si       2.57992875       2.77250913      -0.10128813       0.00000000
Si       0.04250061      -2.63570571       2.79654366       0.00000000
Si       2.61180828      -2.82095559       0.09649389       0.00000000
Si      -2.75791166      -2.69117316       0.11645659       0.00000000
