10
Lattice="16.28999089631971 0.0 0.0 0.0 16.28999089631971 0.0 0.0 0.0 34.61538196595647" Properties=species:S:1:pos:R:3:initial_magmoms:R:1 pbc="T T T"
Si       0.78723706       0.17669763       2.25865494       0.00000000
Si      -0.46516258      -2.23873470      -0.81951963       0.00000000
Si      -2.42328478       0.23317506       0.13700776       0.00000000
Si       2.12414107       0.39068307      -1.15210440       0.00000000
Si      -2.72896663      -1.38541563      -1.54329305       0.00000000
Si      -1.04910858       3.32293194      -0.35792325       0.00000000
Si       1.14494917      -2.11644567       2.71232439       0.00000000
Si       2.39629810       1.93877064       2.02877406       0.00000000
Si       2.84876914      -1.68423939      -1.98772019       0.00000000
Si      -0.46510882      -2.11566375      -3.19631693       0.00000000
