10
Lattice="16.28999089631971 0.0 0.0 0.0 16.28999089631971 0.0 0.0 0.0 34.61538196595647" Properties=species:S:1:pos:R:3:initial_magmoms:R:1 pbc="T T T"
Si       0.00005376       0.12307095      -2.37679730       0.00000000
Si       0.46516258       2.23873470       0.81951963       0.00000000
Si       2.11387999      -1.34312679      -0.30364630       0.00000000
Si      -2.26380405       0.85331907      -0.72377343       0.00000000
Si      -1.24468536      -2.04380856      -0.84728118       0.00000000
Si      -1.95812220       2.47190976       0.95652738       0.00000000
Si       3.31393171       0.55449531      -1.16820056       0.00000000
Si       2.63442694      -1.37073834       2.07294331       0.00000000
Si       2.58930365       2.62941777      -0.33258478       0.00000000
Si       1.61011174       0.12228903       3.53184401       0.00000000
