10
Lattice="16.28999089631971 0.0 0.0 0.0 16.28999089631971 0.0 0.0 0.0 34.61538196595647" Properties=species:S:1:pos:R:3:initial_magmoms:R:1 pbc="T T T"
Si      -2.10990428       0.28274553      -0.98563894       0.00000000
Si      -0.79842014      -0.86064957       2.03486637       0.00000000
Si       1.00344771       2.12473728       0.41126558       0.00000000
Si       1.49895693      -1.30227147      -1.33733141       0.00000000
Si       2.42383797       1.18265400       2.09212024       0.00000000
Si      -2.45960171      -2.10756762      -1.07889283       0.00000000
Si      -2.06121347       1.16017380       2.58071663       0.00000000
Si      -1.78521200      -2.82364344       1.14583901       0.00000000
Si       2.30641965       0.58129236      -2.63717435       0.00000000
Si      -3.15279008       1.77789060       0.56495796       0.00000000
