10
Lattice="16.28999089631971 0.0 0.0 0.0 16.28999089631971 0.0 0.0 0.0 34.61538196595647" Properties=species:S:1:pos:R:3:initial_magmoms:R:1 pbc="T T T"
Si       1.90096155       0.14348232       1.37783143       0.00000000
Si      -0.95286726      -2.12221233      -0.40022327       0.00000000
Si       0.86677461       0.70020936      -2.09281255       0.00000000
Si      -1.23460281       1.73473839       1.08197360       0.00000000
Si      -2.35548350      -1.34309421      -2.15006642       0.00000000
Si       2.19416526       2.42971866      -1.25550061       0.00000000
Si       2.26347921       2.45654829       1.11423515       0.00000000
Si       2.19256884      -1.16877492      -2.61020895       0.00000000
Si      -2.47548867       2.59613730      -0.74298497       0.00000000
Si       0.85805946      -3.63586284      -0.77296191       0.00000000
