10
Lattice="16.28999089631971 0.0 0.0 0.0 16.28999089631971 0.0 0.0 0.0 34.61538196595647" Properties=species:S:1:pos:R:3:initial_magmoms:R:1 pbc="T T T"
Si       1.35427078      -1.35651717       1.35733912       0.00000000
Si       1.34275375       1.34420056      -1.38570990       0.00000000
Si      -1.36082403       1.35590123       1.35855066       0.00000000
Si      -1.33580185      -1.38495951      -1.36617643       0.00000000
Si      -2.76948475      -0.10609677      -2.65080589       0.00000000
Si       2.71145584      -2.71612944      -0.00270000       0.00000000
Si       2.71316629       0.00006516       2.71523208       0.00000000
Si      -2.71496212       2.71390815      -0.00100385       0.00000000
Si       2.71627768       2.71356932      -0.00242308       0.00000000
Si      -0.00156058      -2.71484253       2.71502439       0.00000000
