10
Lattice="10.86 0.0 0.0 0.0 10.86 0.0 0.0 0.0 10.86" Properties=species:S:1:pos:R:3:initial_magmoms:R:1 pbc="T T T"
Si      -1.28456424       1.00237800      -1.49506362       0.00000000
Si       1.62721896       1.44158898       0.91652970       0.00000000
Si      -1.28456424      -1.71262200       1.21993638       0.00000000
Si       1.43043576      -1.71262200      -1.49506362       0.00000000
Si       0.28742076       2.24674938       2.43392148       0.00000000
Si      -2.64206424       2.35987800      -0.13756362       0.00000000
Si      -2.64206424      -0.35512200       2.57743638       0.00000000
Si       0.26890446       2.38384602      -2.97619386       0.00000000
Si      -2.64206424      -0.35512200      -2.85256362       0.00000000
Si       2.73904404      -0.22353138      -2.85726600       0.00000000
