10
Lattice="10.86 0.0 0.0 0.0 10.86 0.0 0.0 0.0 10.86" Properties=species:S:1:pos:R:3:initial_magmoms:R:1 pbc="T T T"
Si      -1.30860828       1.22590938      -1.35279762       0.00000000
Si      -1.30860828      -1.48909062       1.36220238       0.00000000
Si       1.40639172      -1.48909062      -1.35279762       0.00000000
Si       2.63362602      -0.05413710       2.31353838       0.00000000
Si      -2.47013958       2.60737740      -0.11892786       0.00000000
Si       0.04889172       2.58340938      -2.71029762       0.00000000
Si      -2.66610828      -0.13159062      -2.71029762       0.00000000
Si       2.89057362       2.57638296      -0.04662198       0.00000000
Si       2.76389172      -0.13159062      -2.71029762       0.00000000
Si      -2.66610828      -2.84659062       0.00470238       0.00000000
