10
Lattice="10.86 0.0 0.0 0.0 10.86 0.0 0.0 0.0 10.86" Properties=species:S:1:pos:R:3:initial_magmoms:R:1 pbc="T T T"
Si      -1.40533830       1.26084600      -1.34709612       0.00000000
Si       1.30966170      -1.45415400      -1.34709612       0.00000000
Si      -1.40533830      -1.45415400       1.36790388       0.00000000
Si       1.52506980       1.64474700       1.28927748       0.00000000
Si      -0.15555864       2.68451598       2.62067004       0.00000000
Si       2.46106062      -2.83860852      -0.13834554       0.00000000
Si      -0.04783830       2.61834600      -2.70459612       0.00000000
Si       2.66716170      -0.09665400      -2.70459612       0.00000000
Si      -2.76283830       2.61834600       0.01040388       0.00000000
Si      -2.76283830      -0.09665400      -2.70459612       0.00000000
