10
Lattice="10.86 0.0 0.0 0.0 10.86 0.0 0.0 0.0 10.86" Properties=species:S:1:pos:R:3:initial_magmoms:R:1 pbc="T T T"
Si       1.47264858       1.13450076      -1.34607528       0.00000000
Si      -1.68062844       1.03976898       1.33139256       0.00000000
Si      -1.52506980      -1.64474700      -1.28927748       0.00000000
Si       2.49959190       2.33109900       0.07862640       0.00000000
Si      -0.21540810       2.33109900      -2.63637360       0.00000000
Si      -0.21540810       2.33109900       2.79362640       0.00000000
Si       2.49959190      -0.38390100      -2.63637360       0.00000000
Si      -2.93040810       2.33109900       0.07862640       0.00000000
Si      -2.93040810      -0.38390100      -2.63637360       0.00000000
Si      -2.93040810      -0.38390100       2.79362640       0.00000000
