10
Lattice="16.28999089631971 0.0 0.0 0.0 16.28999089631971 0.0 0.0 0.0 34.31420841018396" Properties=species:S:1:pos:R:3:initial_magmoms:R:1 pbc="T T T"
Si      -2.00110369      -1.23926175      -0.00802953       0.00000000
Si       0.31176421       1.77472287      -1.63363175       0.00000000
Si      -0.36806377       1.26778458       2.17236512       0.00000000
Si       1.60474386      -2.03752062      -0.19548815       0.00000000
Si      -1.47537652      -2.60091027      -1.85904191       0.00000000
Si       1.99992297       3.09167000      -0.20465005       0.00000000
Si      -1.78506571       2.72806091      -1.75438351       0.00000000
Si      -2.58904237      -1.77992685       2.26381254       0.00000000
Si       2.71274079      -1.52863731      -2.31998493       0.00000000
Si      -1.35777901      -0.33433596       3.62798979       0.00000000
