10
Lattice="16.28999089631971 0.0 0.0 0.0 16.28999089631971 0.0 0.0 0.0 34.31420841018396" Properties=species:S:1:pos:R:3:initial_magmoms:R:1 pbc="T T T"
Si       1.36609569       1.33934751       1.38736540       0.00000000
Si       1.30508964      -1.36625859      -1.42168649       0.00000000
Si      -1.34643366      -1.37500958       1.38201238       0.00000000
Si      -1.39764942       1.50151446      -1.59990086       0.00000000
Si       2.70817992       2.69040753       0.00802267       0.00000000
Si      -2.70303228       2.70210375       0.00985505       0.00000000
Si       0.01071882       2.69622306       2.74716961       0.00000000
Si      -0.23227911      -2.73676037      -2.70338607       0.00000000
Si       2.71854036      -2.73357792       0.01298107       0.00000000
Si      -2.70752832      -0.01909188       2.74710098       0.00000000
