10
Lattice="16.28999089631971 0.0 0.0 0.0 16.28999089631971 0.0 0.0 0.0 34.31420841018396" Properties=species:S:1:pos:R:3:initial_magmoms:R:1 pbc="T T T"
Si       1.35676152       1.35523026       1.35681887       0.00000000
Si      -1.35754344       1.35731538      -1.35839733       0.00000000
Si       1.35782037      -1.35780245      -1.35771104       0.00000000
Si      -1.35899325      -1.35986965       1.35740221       0.00000000
Si       2.71365336       0.00011403       2.71267695       0.00000000
Si       2.71406061       0.00029322      -2.71463286       0.00000000
Si       2.71479366      -2.71455459      -0.00044608       0.00000000
Si       0.00371412       2.71254564       2.71693191       0.00000000
Si       0.00123804       2.71503801      -2.71463286       0.00000000
Si       2.71487511       2.71495656       0.00037746       0.00000000
