10
Lattice="16.28999089631971 0.0 0.0 0.0 16.28999089631971 0.0 0.0 0.0 34.31420841018396" Properties=species:S:1:pos:R:3:initial_magmoms:R:1 pbc="T T T"
Si       1.35697329      -1.35675214       1.35726496       0.00000000
Si       1.35624024       1.35809567      -1.35692182       0.00000000
Si      -1.35708732      -1.35805167      -1.35678456       0.00000000
Si      -1.35782037       1.35780245       1.35771104       0.00000000
Si       2.71314837       0.00095622       2.71425540       0.00000000
Si      -0.00105885       2.71303271       2.71452992       0.00000000
Si       2.71437012      -2.71437894      -0.00027451       0.00000000
Si      -0.00073305      -2.71548666       2.71391226       0.00000000
Si       2.71422351       2.71550879      -0.00010294       0.00000000
Si      -0.00060273      -2.71258704      -2.71720643       0.00000000
