10
Lattice="16.28999089631971 0.0 0.0 0.0 16.28999089631971 0.0 0.0 0.0 34.31420841018396" Properties=species:S:1:pos:R:3:initial_magmoms:R:1 pbc="T T T"
Si      -0.65570508       1.35915615       1.77812896       0.00000000
Si      -2.10869163      -0.99005081      -0.25378803       0.00000000
Si       0.94381002       1.09217934      -1.85818405       0.00000000
Si       1.52632413      -1.72364979       0.65955377       0.00000000
Si       1.66030938      -0.91358555      -2.92569967       0.00000000
Si      -1.81183896      -1.93245731      -2.38497607       0.00000000
Si      -2.06695665      -2.40276590       1.68198049       0.00000000
Si       1.00897002       3.40035831      -0.67094609       0.00000000
Si      -1.17154422       1.67839128      -3.17145817       0.00000000
Si      -3.68911485       0.76185072      -0.32763224       0.00000000
