10
Lattice="16.28999089631971 0.0 0.0 0.0 16.28999089631971 0.0 0.0 0.0 34.31420841018396" Properties=species:S:1:pos:R:3:initial_magmoms:R:1 pbc="T T T"
Si      -0.94381002      -1.09217934       1.85818405       0.00000000
Si       0.71649936      -2.00576489      -1.06751562       0.00000000
Si      -2.11535424       0.58621194      -1.31327412       0.00000000
Si       0.06516000       2.30817897       1.18723796       0.00000000
Si       3.05401662       0.98637579      -0.44642810       0.00000000
Si       2.25541566       1.70774586       1.68211775       0.00000000
Si       2.77374717      -1.15357635      -1.63984262       0.00000000
Si       0.58251411      -2.81582913       2.51773782       0.00000000
Si      -1.59951510       0.26697681       3.63631301       0.00000000
Si       0.56772279       0.82943793      -3.86096826       0.00000000
