10
Lattice="16.28999089631971 0.0 0.0 0.0 16.28999089631971 0.0 0.0 0.0 34.31420841018396" Properties=species:S:1:pos:R:3:initial_magmoms:R:1 pbc="T T T"
Si       0.65570508      -1.35915615      -1.77812896       0.00000000
Si       0.64205406       2.22527916      -0.32577928       0.00000000
Si       0.36390231      -1.08214470       2.05905954       0.00000000
Si      -2.24751501       0.76667256      -0.33634806       0.00000000
Si      -1.45298655      -2.34920696      -2.03191699       0.00000000
Si      -1.57376061       3.01057119      -0.69225523       0.00000000
Si      -1.26296370       0.15644916       3.24097880       0.00000000
Si       1.66467510       2.04120216      -2.44907505       0.00000000
Si      -3.11904630       0.43528509       1.85581637       0.00000000
Si      -3.03340977      -0.59730543      -2.10576120       0.00000000
