10
Lattice="16.28999089631971 0.0 0.0 0.0 16.28999089631971 0.0 0.0 0.0 34.31420841018396" Properties=species:S:1:pos:R:3:initial_magmoms:R:1 pbc="T T T"
Si      -1.69516998       0.36565349       1.51071818       0.00000000
Si       1.84474476       0.56043302       1.30517596       0.00000000
Si       0.11083716       0.62200922      -2.29112666       0.00000000
Si       0.22965642      -2.38576728      -0.25828319       0.00000000
Si       2.37697164      -1.60047525      -0.81918356       0.00000000
Si       1.19576745      -1.41949335      -2.86359092       0.00000000
Si      -3.33022986      -0.95970580       0.47785993       0.00000000
Si       0.40364991      -2.87464647       2.02419629       0.00000000
Si       1.97141580      -1.28160451       2.74280484       0.00000000
Si      -2.12734368       0.69894689      -3.04947109       0.00000000
