10
Lattice="16.28999089631971 0.0 0.0 0.0 16.28999089631971 0.0 0.0 0.0 34.31420841018396" Properties=species:S:1:pos:R:3:initial_magmoms:R:1 pbc="T T T"
Si       0.75611664      -0.49603539      -2.15647763       0.00000000
Si       0.26953434      -1.59235957       1.73218221       0.00000000
Si       0.90982908       2.01848901       0.94570011       0.00000000
Si      -2.34613141       0.70613403      -0.11519286       0.00000000
Si      -1.55460357       2.07061701       1.67848044       0.00000000
Si      -1.10703582      -1.35418591      -3.29341094       0.00000000
Si       2.42624889      -2.51197894       1.52537036       0.00000000
Si       1.79398512       1.38141969      -3.19015942       0.00000000
Si      -1.28568825      -3.38396635       1.49445324       0.00000000
Si      -0.02731833      -0.64995308       3.86337026       0.00000000
