10
Lattice="16.28999089631971 0.0 0.0 0.0 16.28999089631971 0.0 0.0 0.0 34.31420841018396" Properties=species:S:1:pos:R:3:initial_magmoms:R:1 pbc="T T T"
Si      -0.33234858       0.47417258      -2.22277272       0.00000000
Si       1.27796679       1.91448551       0.59593519       0.00000000
Si       0.87457752      -1.88420307       1.26489106       0.00000000
Si      -2.31793668      -0.40447744       0.61899435       0.00000000
Si      -1.18635183      -1.22023956       2.64542106       0.00000000
Si      -2.25176670      -2.01960555      -1.26557734       0.00000000
Si       2.92970763      -0.58938360       1.37572601       0.00000000
Si      -1.06261299       2.70411068      -1.81614912       0.00000000
Si       1.97747568       1.26743042       2.66802574       0.00000000
Si       3.33423720      -1.17308542      -0.99068606       0.00000000
