10
Lattice="16.28999089631971 0.0 0.0 0.0 16.28999089631971 0.0 0.0 0.0 34.31420841018396" Properties=species:S:1:pos:R:3:initial_magmoms:R:1 pbc="T T T"
Si       1.35304740      -1.35731538      -1.36011304       0.00000000
Si      -1.36213722       1.35993807      -1.36069638       0.00000000
Si      -1.34667801      -1.36441782       1.37503973       0.00000000
Si       1.35953082       1.34553771       1.38519674       0.00000000
Si      -0.10705788       2.61895959       2.74355975       0.00000000
Si       2.70993924      -2.71243161      -0.00425496       0.00000000
Si      -2.71332756       2.71391400      -0.00274514       0.00000000
Si       2.71116099       0.00241092      -2.71655446       0.00000000
Si       2.71109583       2.71705797       0.00538733       0.00000000
Si      -0.00371412      -2.71254564      -2.71693191       0.00000000
