10
Lattice="16.28999089631971 0.0 0.0 0.0 16.28999089631971 0.0 0.0 0.0 34.31420841018396" Properties=species:S:1:pos:R:3:initial_magmoms:R:1 pbc="T T T"
Si      -0.09539424       1.81584630       1.55323351       0.00000000
Si      -1.27589796       1.39820328      -1.58068489       0.00000000
Si      -0.11111409      -2.10861018       1.31224469       0.00000000
Si       2.57196294      -1.86538419      -1.23544945       0.00000000
Si      -2.25895059      -0.28432566      -2.93942536       0.00000000
Si       1.98426861       1.68744852       2.66075952       0.00000000
Si      -2.57554674      -2.05648218       2.04502502       0.00000000
Si       0.48521394       2.51175510      -2.93925379       0.00000000
Si       0.77304195      -2.74567950      -2.82361485       0.00000000
Si      -1.61849295       1.47751929       3.37229934       0.00000000
