10
Lattice="16.28999089631971 0.0 0.0 0.0 16.28999089631971 0.0 0.0 0.0 34.31420841018396" Properties=species:S:1:pos:R:3:initial_magmoms:R:1 pbc="T T T"
Si       0.50350761       1.79701506      -1.34600989       0.00000000
Si       1.85492601      -0.58875318       1.28294034       0.00000000
Si       0.33277212      -1.79401770      -1.46593812       0.00000000
Si      -2.27923164       0.16263936       0.81396779       0.00000000
Si       0.65376657      -2.42460360       2.22634140       0.00000000
Si      -1.43068554       0.43971597       3.05063778       0.00000000
Si      -0.25137099      -3.42611280       0.16786520       0.00000000
Si      -1.50446295       1.82275326      -2.54532646       0.00000000
Si       0.32863446       2.48600061       2.49560514       0.00000000
Si       2.59771743      -1.31111694      -2.04420148       0.00000000
