10
Lattice="16.28999089631971 0.0 0.0 0.0 16.28999089631971 0.0 0.0 0.0 34.31420841018396" Properties=species:S:1:pos:R:3:initial_magmoms:R:1 pbc="T T T"
Si      -0.84854610      -0.27707661      -2.23666998       0.00000000
Si      -1.68642225       0.68461983       1.58747911       0.00000000
Si       1.12322808      -1.87654284       1.14588932       0.00000000
Si       1.75932000       2.04628464      -0.55503263       0.00000000
Si       1.43068554      -0.43971597      -3.05063778       0.00000000
Si      -0.00280188       1.79580960       2.92453440       0.00000000
Si       2.08445211      -2.86431957      -0.82429638       0.00000000
Si       0.93727773       3.37691700       1.33513228       0.00000000
Si       3.28561155      -1.02846915      -1.76769743       0.00000000
Si       2.61136845      -0.99774621       2.81200775       0.00000000
