10
Lattice="16.28999089631971 0.0 0.0 0.0 16.28999089631971 0.0 0.0 0.0 34.31420841018396" Properties=species:S:1:pos:R:3:initial_magmoms:R:1 pbc="T T T"
Si      -1.35653346      -1.35736425      -1.35812281       0.00000000
Si       1.35826020       1.35796698      -1.35767673       0.00000000
Si      -1.35594702       1.35832536       1.36007872       0.00000000
Si       1.35834165      -1.35742941       1.36467683       0.00000000
Si       0.03282435       2.69347005       2.71974568       0.00000000
Si      -2.71386513       0.00042354      -2.71531914       0.00000000
Si      -2.71489140      -2.71454931      -0.00140688       0.00000000
Si       0.00092853      -2.71458189      -2.71552503       0.00000000
Si       0.00105885       2.71534752      -2.71528483       0.00000000
Si      -2.71423980       2.71653669      -0.00109806       0.00000000
