10
Lattice="16.28999089631971 0.0 0.0 0.0 16.28999089631971 0.0 0.0 0.0 34.31420841018396" Properties=species:S:1:pos:R:3:initial_magmoms:R:1 pbc="T T T"
Si      -1.34118828      -1.36181142      -1.37342696       0.00000000
Si       1.36894644       1.35708732      -1.36989259       0.00000000
Si       1.26508140      -1.45676583       1.37287793       0.00000000
Si      -1.51637094       1.12576932       1.50968876       0.00000000
Si       0.12219129       2.46247785       2.69335804       0.00000000
Si      -0.49603050      -2.57031765       2.73144683       0.00000000
Si      -2.70848454       2.69865027       0.01303941       0.00000000
Si      -2.70494635      -0.00164529      -2.72983406       0.00000000
Si      -2.70300784      -2.73427650      -0.01629926       0.00000000
Si       0.01065366       2.71529865      -2.73106937       0.00000000
