10
Lattice="16.28999089631971 0.0 0.0 0.0 16.28999089631971 0.0 0.0 0.0 34.31420841018396" Properties=species:S:1:pos:R:3:initial_magmoms:R:1 pbc="T T T"
Si       0.81249633      -2.05662879       0.85068402       0.00000000
Si      -0.41055687       1.15823529       2.03394153       0.00000000
Si       1.85482827       0.63167733      -1.42390319       0.00000000
Si      -2.28247335       0.10598274      -0.82848271       0.00000000
Si      -1.35990549       3.10777362       1.21438051       0.00000000
Si       2.73893544       2.41419429      -0.19881663       0.00000000
Si      -1.39297419      -0.51950439       3.34076457       0.00000000
Si       0.70047000      -3.41208711      -1.17766429       0.00000000
Si       0.73106262       3.73350510       0.11213890       0.00000000
Si      -3.04613226       2.28573135      -0.16851717       0.00000000
