10
Lattice="16.28999089631971 0.0 0.0 0.0 16.28999089631971 0.0 0.0 0.0 34.31420841018396" Properties=species:S:1:pos:R:3:initial_magmoms:R:1 pbc="T T T"
Si       1.28531358       1.24818867       1.40853041       0.00000000
Si      -2.02134465      -0.73708992       0.91485162       0.00000000
Si      -0.77274873       1.35834165      -1.75277075       0.00000000
Si       1.46377053      -1.72250460      -0.67190689       0.00000000
Si       0.02989215       3.14133102       0.86554208       0.00000000
Si      -2.04431355      -2.45529396      -0.75518752       0.00000000
Si       2.06345430      -2.39634045       1.59681258       0.00000000
Si       0.14245605       0.33347259      -3.57883668       0.00000000
Si      -0.06473646      -3.16190529      -1.76625624       0.00000000
Si       3.30608808       1.66750956       0.36060822       0.00000000
