10
Lattice="16.28999089631971 0.0 0.0 0.0 16.28999089631971 0.0 0.0 0.0 34.31420841018396" Properties=species:S:1:pos:R:3:initial_magmoms:R:1 pbc="T T T"
Si       2.02134465       0.73708992      -0.91485162       0.00000000
Si      -1.96325451       1.01791323      -0.84694377       0.00000000
Si      -0.02296890      -1.71820404      -1.67003914       0.00000000
Si      -0.19784205      -1.02921849       2.17157589       0.00000000
Si      -3.13901784      -1.09833696      -0.89313072       0.00000000
Si      -0.52647651      -3.51521910      -0.32402925       0.00000000
Si       1.99073574      -2.13351759       2.09944739       0.00000000
Si      -1.04809860       1.92132405      -2.87412539       0.00000000
Si       1.24859592       2.09543157      -2.66762237       0.00000000
Si       3.30665823       1.98527859       0.49367879       0.00000000
