10
Lattice="16.28999089631971 0.0 0.0 0.0 16.28999089631971 0.0 0.0 0.0 34.31420841018396" Properties=species:S:1:pos:R:3:initial_magmoms:R:1 pbc="T T T"
Si      -1.35547461       1.35682668       1.35740221       0.00000000
Si       1.35760860       1.35654975      -1.35664730       0.00000000
Si      -1.35687555      -1.35909099      -1.35675024       0.00000000
Si       1.35829278      -1.35821133       1.36117678       0.00000000
Si       2.71485882       2.71313208      -0.00034314       0.00000000
Si       0.00006516       2.71393029      -2.71432403       0.00000000
Si      -0.02515176       2.71632492       2.71199066       0.00000000
Si      -2.71718503       2.71163340      -0.00044608       0.00000000
Si      -2.71419582      -0.00136836      -2.71463286       0.00000000
Si       2.71529865      -0.00118917      -2.71418677       0.00000000
