10
Lattice="16.28999089631971 0.0 0.0 0.0 16.28999089631971 0.0 0.0 0.0 34.31420841018396" Properties=species:S:1:pos:R:3:initial_magmoms:R:1 pbc="T T T"
Si       0.38266839       1.26107406       1.85842425       0.00000000
Si       1.51953120      -1.81516212       0.22541016       0.00000000
Si       0.29354580       1.36769211      -1.94094997       0.00000000
Si      -2.54716956      -0.15636771      -0.31174476       0.00000000
Si      -1.68031350      -1.95883992      -1.65226437       0.00000000
Si      -0.54374391      -0.48309624      -3.11923192       0.00000000
Si      -0.15099201      -3.41643654      -0.54449816       0.00000000
Si      -1.77404616       2.18069343       2.06523610       0.00000000
Si      -3.32926875       0.38908665       1.82750713       0.00000000
Si       1.69810218       3.19956518       1.52451250       0.00000000
