10
Lattice="16.28999089631971 0.0 0.0 0.0 16.28999089631971 0.0 0.0 0.0 34.31420841018396" Properties=species:S:1:pos:R:3:initial_magmoms:R:1 pbc="T T T"
Si      -1.85608260       0.27883593      -1.38516242       0.00000000
Si       1.62686601      -1.23859386      -1.18191925       0.00000000
Si      -1.03651641      -1.09778310       1.90080232       0.00000000
Si       0.92216061       2.24626068       0.04704481       0.00000000
Si       1.26296370      -0.15644916      -3.24097880       0.00000000
Si       1.91291841       2.29014594       2.15109030       0.00000000
Si       0.42397983      -2.89724655       2.34541177       0.00000000
Si      -0.98455131       0.61022340      -3.57732685       0.00000000
Si      -3.38502779       1.71030339      -0.13317352       0.00000000
Si      -3.11795650      -1.67117481      -1.71389273       0.00000000
