10
Lattice="16.28999089631971 0.0 0.0 0.0 16.28999089631971 0.0 0.0 0.0 34.31420841018396" Properties=species:S:1:pos:R:3:initial_magmoms:R:1 pbc="T T T"
Si       1.49895693      -1.24598952      -1.23661613       0.00000000
Si      -1.27325898       1.49340204      -1.24546920       0.00000000
Si       0.83728971       1.85078835       1.17828195       0.00000000
Si      -1.13656959      -1.47574368       1.46696754       0.00000000
Si       0.54374391       0.48309624       3.11923192       0.00000000
Si      -2.00342565       0.32672853       2.80748716       0.00000000
Si       0.11018556      -2.58113421      -2.59628309       0.00000000
Si      -2.60358183       0.13390380      -2.60005765       0.00000000
Si       2.82460455       0.13403412      -2.59652329       0.00000000
Si       0.11021814       2.84682411      -2.59775860       0.00000000
