10
Lattice="16.28999089631971 0.0 0.0 0.0 16.28999089631971 0.0 0.0 0.0 34.31420841018396" Properties=species:S:1:pos:R:3:initial_magmoms:R:1 pbc="T T T"
Si       0.94934862      -1.94953833       0.81956101       0.00000000
Si      -1.68622677      -0.82204227      -1.38289769       0.00000000
Si      -0.93041964       1.89291429       1.11287903       0.00000000
Si       2.09096811       0.62573148      -1.10224162       0.00000000
Si       2.74864428      -0.93607227       1.90667006       0.00000000
Si      -0.97215462       3.30562937      -0.82288949       0.00000000
Si       1.35990549      -3.10777362      -1.21438051       0.00000000
Si       2.50185078       1.42298037       2.18259076       0.00000000
Si       2.66286114       2.57203040       0.09045230       0.00000000
Si      -3.58658233      -1.04070294       0.02576998       0.00000000
