10
Lattice="16.28999089631971 0.0 0.0 0.0 16.28999089631971 0.0 0.0 0.0 34.31420841018396" Properties=species:S:1:pos:R:3:initial_magmoms:R:1 pbc="T T T"
Si      -1.35580041       1.35772426       1.36189738       0.00000000
Si       1.36003581      -1.35880333       1.36151992       0.00000000
Si      -1.36080144      -1.35733193      -1.37229116       0.00000000
Si       1.36790388       1.36806841      -1.37348529       0.00000000
Si      -2.71264338      -2.71295845       0.00161277       0.00000000
Si      -2.71324611       2.71559350       0.00209317       0.00000000
Si      -2.71204065      -0.00037141       2.71881919       0.00000000
Si       0.00232947      -2.71475035       2.71854468       0.00000000
Si       2.72093499       2.71238437       0.00150983       0.00000000
Si       0.00218286       2.71513738       2.71871625       0.00000000
