10
Lattice="16.28999089631971 0.0 0.0 0.0 16.28999089631971 0.0 0.0 0.0 34.31420841018396" Properties=species:S:1:pos:R:3:initial_magmoms:R:1 pbc="T T T"
Si      -0.19222200       2.13715026       0.91193491       0.00000000
Si       0.75155544       0.30020841      -2.21494908       0.00000000
Si      -2.27802618      -0.23640048      -0.64696045       0.00000000
Si       2.08479420      -0.93095721       0.72135369       0.00000000
Si      -0.84898593       3.21455457      -1.08381488       0.00000000
Si       3.20631183       1.17789732       1.15343845       0.00000000
Si      -2.61627174       1.86465114      -1.72634879       0.00000000
Si      -2.15757792      -1.91462886      -2.25283198       0.00000000
Si       2.79352323      -2.09754927      -1.25054771       0.00000000
Si      -0.13940982      -1.61852553      -3.38190733       0.00000000
