10
Lattice="16.28999089631971 0.0 0.0 0.0 16.28999089631971 0.0 0.0 0.0 34.31420841018396" Properties=species:S:1:pos:R:3:initial_magmoms:R:1 pbc="T T T"
Si      -1.34208423      -1.35106002       1.37934273       0.00000000
Si       1.37169945       1.36500426       1.37422991       0.00000000
Si       1.38782655      -1.32699969      -1.42742383       0.00000000
Si      -1.38466629       1.36526490      -1.47819859       0.00000000
Si       2.13462531       0.56702232      -2.65511586       0.00000000
Si       0.44927820       2.47552614      -2.70753123       0.00000000
Si      -2.70817992      -2.69040753      -0.00802267       0.00000000
Si      -2.69107542       2.71958292       0.00927514       0.00000000
Si      -2.69746110       0.00581553       2.73914694       0.00000000
Si       2.73906576      -2.69858511       0.00376427       0.00000000
