10
Lattice="16.28999089631971 0.0 0.0 0.0 16.28999089631971 0.0 0.0 0.0 34.31420841018396" Properties=species:S:1:pos:R:3:initial_magmoms:R:1 pbc="T T T"
Si      -1.08119988      -1.54706130      -1.33791173       0.00000000
Si       1.56960666       1.13476140      -1.37826527       0.00000000
Si       1.21511997      -1.71872532       1.56342484       0.00000000
Si      -1.73045412       1.97146467       0.14363936       0.00000000
Si      -2.33015418      -2.83892835       0.17486530       0.00000000
Si      -2.46602907      -0.14243976      -2.73889302       0.00000000
Si      -2.08150362       1.77705981       2.53575279       0.00000000
Si       0.25703991       2.58502752      -2.74002539       0.00000000
Si       3.09283569       2.31956568      -0.03242695       0.00000000
Si       3.24500058      -0.72873315       2.08901586       0.00000000
