10
Lattice="16.28999089631971 0.0 0.0 0.0 16.28999089631971 0.0 0.0 0.0 34.31420841018396" Properties=species:S:1:pos:R:3:initial_magmoms:R:1 pbc="T T T"
Si       1.76728581       1.34990343       0.64253391       0.00000000
Si      -1.70518833       1.09323819       1.20075777       0.00000000
Si      -0.96239691       0.37087443      -2.12638406       0.00000000
Si       0.33824556      -2.10105162       1.07938834       0.00000000
Si      -3.22734222      -0.11202633      -1.54812069       0.00000000
Si       2.42404974       0.27249912       2.63828370       0.00000000
Si       3.42689472       0.76579290      -0.87741480       0.00000000
Si       2.61627174      -1.86465114       1.72634879       0.00000000
Si      -2.90634777      -0.74261223       2.14415882       0.00000000
Si       3.36782718      -1.56444273      -0.48860029       0.00000000
