10
Lattice="16.28999089631971 0.0 0.0 0.0 16.28999089631971 0.0 0.0 0.0 34.31420841018396" Properties=species:S:1:pos:R:3:initial_magmoms:R:1 pbc="T T T"
Si       1.36054080       1.34956134       1.39797536       0.00000000
Si      -1.35402480      -1.36666584       1.39667142       0.00000000
Si       1.49406993      -1.25252181      -1.48770363       0.00000000
Si      -1.41188688       1.38795687      -1.51776633       0.00000000
Si       2.72398122       2.68993512       0.04778942       0.00000000
Si      -2.71015101       2.70467757       0.02206405       0.00000000
Si       2.72106531      -2.69695611       0.02731069       0.00000000
Si      -2.70604593      -2.72302011       0.02845679       0.00000000
Si       0.00159642       2.70783783       2.75801977       0.00000000
Si      -2.71526607      -0.00664632       2.75795114       0.00000000
