10
Lattice="16.28999089631971 0.0 0.0 0.0 16.28999089631971 0.0 0.0 0.0 34.31420841018396" Properties=species:S:1:pos:R:3:initial_magmoms:R:1 pbc="T T T"
Si      -1.30538286       1.20058929       1.60975591       0.00000000
Si      -1.81377747      -1.04067036      -1.31108628       0.00000000
Si       1.23302268       1.67536134      -1.53639350       0.00000000
Si       1.39764942      -1.50151446       1.59990086       0.00000000
Si      -2.73209201       2.47339215       0.18714637       0.00000000
Si       2.72116305       2.55415797       0.12972494       0.00000000
Si      -3.59858480       0.65699199      -1.16054977       0.00000000
Si      -2.65053450      -2.87149043       0.09334842       0.00000000
Si       0.04572603       2.55179592       2.98620252       0.00000000
Si       2.70273906      -2.86777305       0.17821437       0.00000000
