10
Lattice="16.28999089631971 0.0 0.0 0.0 16.28999089631971 0.0 0.0 0.0 34.31420841018396" Properties=species:S:1:pos:R:3:initial_magmoms:R:1 pbc="T T T"
Si      -1.37046141       1.28902770      -1.33226704       0.00000000
Si      -1.36344042      -1.34037378       1.35018593       0.00000000
Si       1.35286821       1.37497374       1.35272519       0.00000000
Si       1.30554576      -1.35780408      -1.50615096       0.00000000
Si       0.13598892       2.41743600      -2.70576208       0.00000000
Si       2.69936703      -2.69019576      -0.02715285       0.00000000
Si      -0.00718389      -2.69838963       2.71029897       0.00000000
Si      -2.72398122      -2.68993512      -0.04778942       0.00000000
Si       2.70516627       0.01791900       2.71050486       0.00000000
Si       2.70598077       2.72142726      -0.00851679       0.00000000
