10
Lattice="16.28999089631971 0.0 0.0 0.0 16.28999089631971 0.0 0.0 0.0 34.31420841018396" Properties=species:S:1:pos:R:3:initial_magmoms:R:1 pbc="T T T"
Si       0.02314809      -0.81267552       2.16498756       0.00000000
Si      -1.27972611       1.93531716      -0.17345842       0.00000000
Si      -0.83833227      -1.46934171      -1.62570516       0.00000000
Si       2.23080147       0.85815720       0.18131638       0.00000000
Si       0.43458462       1.26311031       3.22958647       0.00000000
Si       1.63149237       2.63123152       1.67731376       0.00000000
Si      -3.42704133       1.15002513       0.38744194       0.00000000
Si      -0.30452526      -3.56930190      -0.70749074       0.00000000
Si       1.57275063      -2.61527805       2.17559066       0.00000000
Si       2.79761202       1.90990476      -1.76876118       0.00000000
