10
Lattice="16.28999089631971 0.0 0.0 0.0 16.28999089631971 0.0 0.0 0.0 34.31420841018396" Properties=species:S:1:pos:R:3:initial_magmoms:R:1 pbc="T T T"
Si       1.35640314       1.35747828       1.35692182       0.00000000
Si      -1.35748968       1.35694071      -1.35675024       0.00000000
Si       1.35728280      -1.35769005      -1.35771104       0.00000000
Si      -1.35893786      -1.35705474       1.35805419       0.00000000
Si       0.00521280       2.71145421       2.71487306       0.00000000
Si      -2.71256912       0.00234576       2.71504463       0.00000000
Si       0.00022806       2.71471221      -2.71346617       0.00000000
Si      -0.00218286      -2.71528236      -2.71401520       0.00000000
Si       2.71476108       2.71466334       0.00020589       0.00000000
Si       2.71482624      -2.71500543       0.00068628       0.00000000
