10
Lattice="16.28999089631971 0.0 0.0 0.0 16.28999089631971 0.0 0.0 0.0 34.31420841018396" Properties=species:S:1:pos:R:3:initial_magmoms:R:1 pbc="T T T"
Si       1.35671954       1.35743267      -1.35716202       0.00000000
Si      -1.35799956      -1.35748956      -1.35723064       0.00000000
Si       1.35779582      -1.36013748       1.35596102       0.00000000
Si      -1.35641943       1.35969698       1.35987284       0.00000000
Si      -0.00009774       2.69453216       2.72794678       0.00000000
Si       2.70578922       0.00349746       2.71926528       0.00000000
Si       0.00011403       2.71427564      -2.71422109       0.00000000
Si       2.71303175       2.71554626       0.00068628       0.00000000
Si      -0.00105885      -2.71456953      -2.71401520       0.00000000
Si       2.71400752      -0.00009122      -2.71463286       0.00000000
