10
Lattice="16.28999089631971 0.0 0.0 0.0 16.28999089631971 0.0 0.0 0.0 34.31420841018396" Properties=species:S:1:pos:R:3:initial_magmoms:R:1 pbc="T T T"
Si       1.35596235       1.33664337       1.35695613       0.00000000
Si       1.35363125      -1.35940050      -1.35699044       0.00000000
Si      -1.36065483       1.35443205      -1.35798556       0.00000000
Si      -1.35949824      -1.38041460       1.37027005       0.00000000
Si       2.57988707      -0.18192672       2.74596175       0.00000000
Si       0.00310870       2.61312777       2.77193762       0.00000000
Si       2.71778192       2.70910845      -0.00017157       0.00000000
Si      -0.00237355       2.71254564      -2.71459854       0.00000000
Si       2.71256912      -0.00234576      -2.71504463       0.00000000
Si      -2.71581993      -2.71524978       0.00219611       0.00000000
