10
Lattice="16.28999089631971 0.0 0.0 0.0 16.28999089631971 0.0 0.0 0.0 34.31420841018396" Properties=species:S:1:pos:R:3:initial_magmoms:R:1 pbc="T T T"
Si       1.90246023      -0.88110981       1.12183504       0.00000000
Si      -1.64553435      -1.72520874       0.19202242       0.00000000
Si       0.11196117       0.35056080      -2.36668659       0.00000000
Si      -0.63131895       2.15493894       0.93207736       0.00000000
Si      -2.42233929       2.55829563      -0.59521459       0.00000000
Si      -1.34648253       2.13034104      -2.64504361       0.00000000
Si       3.66900552       0.51018651       0.33102935       0.00000000
Si      -1.61883504      -2.28112128       2.50785532       0.00000000
Si      -0.72786978      -0.36238734       3.67481357       0.00000000
Si      -0.81660141      -3.61177645      -1.05265756       0.00000000
