10
Lattice="16.28999089631971 0.0 0.0 0.0 16.28999089631971 0.0 0.0 0.0 34.31420841018396" Properties=species:S:1:pos:R:3:initial_magmoms:R:1 pbc="T T T"
Si       1.45728711      -1.21125924       1.37901675       0.00000000
Si       1.91101804       0.75176721      -1.17555980       0.00000000
Si      -1.25053443       1.52432046       1.37223626       0.00000000
Si       1.03632093       0.37183554      -3.26256729       0.00000000
Si      -1.29235086      -2.54674602      -2.30423954       0.00000000
Si      -2.64093480      -2.56104864      -0.00713393       0.00000000
Si       0.11864007      -2.55389733       2.75098192       0.00000000
Si      -2.59903692       0.15887637       2.75249175       0.00000000
Si       2.76321636      -2.63352285      -0.04999583       0.00000000
Si      -2.64435570       2.85671214      -0.10676186       0.00000000
