10
Lattice="16.28999089631971 0.0 0.0 0.0 16.28999089631971 0.0 0.0 0.0 34.31420841018396" Properties=species:S:1:pos:R:3:initial_magmoms:R:1 pbc="T T T"
Si       1.12347243       1.35475785      -1.55481197       0.00000000
Si      -0.16109181       1.58174271       1.79298702       0.00000000
Si       1.56989988      -1.39163841       1.20950789       0.00000000
Si      -1.58053725      -1.45455039      -1.33266166       0.00000000
Si       2.16195993       2.08008639       1.89829738       0.00000000
Si      -0.59225553       0.24619077       3.67481357       0.00000000
Si       2.00865474       3.15543816      -0.24249865       0.00000000
Si       2.40210711      -0.08770536      -2.92823893       0.00000000
Si       0.66595149      -1.77383439       3.41848629       0.00000000
Si      -0.33448257       2.61457758      -2.93499883       0.00000000
