10
Lattice="16.28999089631971 0.0 0.0 0.0 16.28999089631971 0.0 0.0 0.0 34.31420841018396" Properties=species:S:1:pos:R:3:initial_magmoms:R:1 pbc="T T T"
Si      -0.49181139      -2.25567630       0.29383273       0.00000000
Si      -1.24056495       0.81378324      -1.80118812       0.00000000
Si       2.20114620       0.72348777      -0.33579903       0.00000000
Si      -0.67917897       1.35319401       1.79820278       0.00000000
Si      -1.92464721      -2.41346124      -1.63466117       0.00000000
Si      -1.21195971      -2.15342397       2.55819430       0.00000000
Si      -0.66067353       3.51907983       0.38606937       0.00000000
Si       0.40371507       1.05476121      -3.42569228       0.00000000
Si       1.15542105       1.29533193       3.25532214       0.00000000
Si       2.05978320       2.15492265      -2.19013989       0.00000000
