10
Lattice="16.28999089631971 0.0 0.0 0.0 16.28999089631971 0.0 0.0 0.0 34.31420841018396" Properties=species:S:1:pos:R:3:initial_magmoms:R:1 pbc="T T T"
Si       0.49181139       2.25567630      -0.29383273       0.00000000
Si      -0.72014832       0.10225233       2.26436156       0.00000000
Si      -1.43283582      -0.15778494      -1.92849390       0.00000000
Si       1.56319884      -1.84407687      -0.03424560       0.00000000
Si      -3.04447068      -1.69694559      -1.16898279       0.00000000
Si      -2.32930710      -1.67234769       2.40813818       0.00000000
Si      -0.74875356       3.06945954      -2.09502085       0.00000000
Si       0.68217633      -3.40695576      -1.58864579       0.00000000
Si      -0.02855637      -0.57634020      -3.85139459       0.00000000
Si      -0.18736758       3.60887031       1.50437005       0.00000000
