10
Lattice="16.28999089631971 0.0 0.0 0.0 16.28999089631971 0.0 0.0 0.0 34.31420841018396" Properties=species:S:1:pos:R:3:initial_magmoms:R:1 pbc="T T T"
Si       0.76148745      -2.20812579      -0.33579903       0.00000000
Si      -1.99297954      -0.16684218       1.29697486       0.00000000
Si       1.71854124       1.32587568       0.99147529       0.00000000
Si      -1.26416916      -0.33163182      -2.48407556       0.00000000
Si      -3.02969143      -2.10124710       0.38394189       0.00000000
Si       0.70834947      -3.17679435       1.77524656       0.00000000
Si       3.24163995       1.66420269      -0.82759054       0.00000000
Si      -2.90580598       2.02802355       1.33032829       0.00000000
Si      -2.58425767      -2.20240800      -1.85694874       0.00000000
Si       2.16799863       0.43108227       3.18875254       0.00000000
