10
Lattice="16.28999089631971 0.0 0.0 0.0 16.28999089631971 0.0 0.0 0.0 34.31420841018396" Properties=species:S:1:pos:R:3:initial_magmoms:R:1 pbc="T T T"
Si       1.78050679       0.91118115      -1.28867082       0.00000000
Si      -0.88518231      -1.80068031      -1.31231332       0.00000000
Si       0.15330519      -1.07535177       2.14079603       0.00000000
Si      -1.94364135       1.42656417      -0.08225120       0.00000000
Si      -2.16974655      -1.57369545       2.03548567       0.00000000
Si       0.38134890       2.19742326      -2.69538258       0.00000000
Si      -2.34313731      -0.54086058      -2.69250018       0.00000000
Si      -1.10187189       3.35363859      -1.24111130       0.00000000
Si      -2.00865474      -3.15543816       0.24249865       0.00000000
Si      -3.29475024       0.58360554       1.92622917       0.00000000
