10
Lattice="16.28999089631971 0.0 0.0 0.0 16.28999089631971 0.0 0.0 0.0 34.31420841018396" Properties=species:S:1:pos:R:3:initial_magmoms:R:1 pbc="T T T"
Si       0.53919900       2.26046542       0.34375993       0.00000000
Si       0.17389575      -0.70291350       2.26806750       0.00000000
Si      -2.19006018       0.02407662      -1.01357365       0.00000000
Si       1.86152346      -0.91199565      -1.38979485       0.00000000
Si       1.15434198      -2.72648988       1.70483377       0.00000000
Si       2.86765902       1.93352526       0.35824054       0.00000000
Si      -2.74250295       2.35081986      -0.96556805       0.00000000
Si       2.79862200      -2.48551191       0.08032961       0.00000000
Si      -0.63203571       3.46072158      -1.36371603       0.00000000
Si      -1.96941213      -0.55732977       3.18494366       0.00000000
