10
Lattice="16.28999089631971 0.0 0.0 0.0 16.28999089631971 0.0 0.0 0.0 34.31420841018396" Properties=species:S:1:pos:R:3:initial_magmoms:R:1 pbc="T T T"
Si       0.56681055       1.05174756      -1.95007755       0.00000000
Si      -0.59930910       1.77307432       1.49599738       0.00000000
Si      -2.23080147      -0.85815720      -0.18131638       0.00000000
Si       1.95413211      -1.20396132       0.71205454       0.00000000
Si      -2.20765338      -1.67083272       1.98367118       0.00000000
Si       1.12337469      -0.87265530      -3.25117012       0.00000000
Si      -1.79621685       0.40495311       3.04827009       0.00000000
Si       2.16305136       2.68269651      -1.23002780       0.00000000
Si      -3.51052758       1.07715996      -0.35477480       0.00000000
Si       1.21803588      -2.27382336       2.66721060       0.00000000
