10
Lattice="16.28999089631971 0.0 0.0 0.0 16.28999089631971 0.0 0.0 0.0 34.31420841018396" Properties=species:S:1:pos:R:3:initial_magmoms:R:1 pbc="T T T"
Si       1.32854561      -1.22595282       1.47521325       0.00000000
Si       1.70085356       0.71941527      -1.54384655       0.00000000
Si      -0.95762720      -1.98671211      -1.10093665       0.00000000
Si      -1.38464253       1.48501269       1.44198335       0.00000000
Si       2.51348021       2.59815726       0.00278975       0.00000000
Si       2.73365585      -2.49768054       0.07973254       0.00000000
Si      -0.03531020      -2.57720832       2.82224228       0.00000000
Si       2.67673859       0.13527216       2.83136986       0.00000000
Si      -2.72565162       2.85019614       0.04491732       0.00000000
Si      -2.75262786       0.13721067       2.82382073       0.00000000
