10
Lattice="16.28999089631971 0.0 0.0 0.0 16.28999089631971 0.0 0.0 0.0 34.31420841018396" Properties=species:S:1:pos:R:3:initial_magmoms:R:1 pbc="T T T"
Si       1.79154162       0.95337225      -1.33424011       0.00000000
Si       0.82450206      -2.20418361       0.73000088       0.00000000
Si      -0.07877844       1.18548846       2.18670847       0.00000000
Si      -2.27859633      -0.58399650      -2.00388226       0.00000000
Si       0.26222013       2.41096887      -2.44200632       0.00000000
Si      -0.35600166      -2.62182663      -2.40391753       0.00000000
Si      -1.48291128      -0.41215329       3.22821390       0.00000000
Si      -0.69859665      -2.54251062       2.54906671       0.00000000
Si       2.20369491       1.07950572       3.01519118       0.00000000
Si      -1.37634210       1.07426034      -3.62567560       0.00000000
