10
Lattice="16.28999089631971 0.0 0.0 0.0 16.28999089631971 0.0 0.0 0.0 34.31420841018396" Properties=species:S:1:pos:R:3:initial_magmoms:R:1 pbc="T T T"
Si       1.61005098       1.10482038       1.25868018       0.00000000
Si       1.02345134      -1.92448431      -0.94837662       0.00000000
Si      -1.69700539      -0.56032713       1.62783264       0.00000000
Si      -0.56357977       1.39439142      -1.90601809       0.00000000
Si      -3.25734304      -1.24204734       0.00380888       0.00000000
Si       1.16481433      -3.35591919       0.90596424       0.00000000
Si       0.70994540       3.25632932       1.76196696       0.00000000
Si      -0.63261679      -3.02464575      -2.18392901       0.00000000
Si       3.67961403       1.00913292       0.13873242       0.00000000
Si       2.08410627      -0.11129328       3.23603755       0.00000000
