10
Lattice="16.28999089631971 0.0 0.0 0.0 16.28999089631971 0.0 0.0 0.0 34.31420841018396" Properties=species:S:1:pos:R:3:initial_magmoms:R:1 pbc="T T T"
Si      -1.65606813      -1.10016144      -1.23555239       0.00000000
Si       0.14136299      -1.43143488       1.85434086       0.00000000
Si       1.90035556       0.21866067      -1.40866767       0.00000000
Si      -1.02345134       1.92448431       0.94837662       0.00000000
Si      -3.30034815      -1.34113941       0.38895177       0.00000000
Si      -2.05978320      -2.15492265       2.19013989       0.00000000
Si       3.58658233       1.04070294      -0.02576998       0.00000000
Si      -2.59316667       0.47335482      -2.70567685       0.00000000
Si       0.58659964       3.02930469       2.20705680       0.00000000
Si      -0.95360357       2.21530968      -2.93311155       0.00000000
