10
Lattice="16.2900001489832 0.0 0.0 0.0 16.2900001489832 0.0 0.0 0.0 29.29585470619324" Properties=species:S:1:pos:R:3:initial_magmoms:R:1 pbc="T T T"
Si       1.75844036       0.77967199       1.41188149       0.00000000
Si       0.95706520      -0.11953765      -2.21851649       0.00000000
Si      -0.76317022      -1.96693118       1.25062832       0.00000000
Si      -1.93204289       1.75681624       0.08268272       0.00000000
Si      -2.21066705      -0.72708298       2.69404680       0.00000000
Si       0.49347297       2.15080619       2.81111889       0.00000000
Si      -0.62723017      -1.53545795      -3.19190055       0.00000000
H       -2.83084365       0.20389704      -2.43890920       0.00000000
Si       3.13106835       2.05348973      -0.00017578       0.00000000
Si      -0.80915689       3.42654126       1.32010637       0.00000000
