10
Lattice="16.2900001489832 0.0 0.0 0.0 16.2900001489832 0.0 0.0 0.0 29.29585470619324" Properties=species:S:1:pos:R:3:initial_magmoms:R:1 pbc="T T T"
Si       1.41826443       0.29305710      -0.39974194       0.00000000
H       -1.27016389       1.45267705       0.80449347       0.00000000
H       -0.33951618      -0.24928587       2.11873480       0.00000000
H       -1.18480429      -1.96794605       0.55952153       0.00000000
Si      -1.80977015      -2.22664754      -0.79163259       0.00000000
Si       2.14496622      -1.63387072      -1.47806376       0.00000000
Si       1.45262493       1.84306691      -2.19417163       0.00000000
Si      -0.00291591      -2.25372152      -2.34917600       0.00000000
Si       2.91048546       0.71671114       1.38361392       0.00000000
Si      -1.35021295       2.85008702       1.36864374       0.00000000
