10
Lattice="16.2900001489832 0.0 0.0 0.0 16.2900001489832 0.0 0.0 0.0 29.29585470619324" Properties=species:S:1:pos:R:3:initial_magmoms:R:1 pbc="T T T"
Si      -1.35707104       1.81006337      -0.80786249       0.00000000
Si      -1.85489345      -1.51910930       0.34876715       0.00000000
Si       1.83063764      -0.76958685      -1.44252789       0.00000000
H        0.86115457       2.26810559       0.45745477       0.00000000
Si       0.94139911       0.48114144       2.25525349       0.00000000
Si      -2.10491237      -1.15360405       2.59854231       0.00000000
Si       2.03727629      -2.87727015      -0.38140273       0.00000000
H       -2.46221723       0.31576536       2.70673190       0.00000000
Si       1.47111733       3.37012410      -0.38113907       0.00000000
Si      -1.72051724       3.08835597       1.26285641       0.00000000
