10
Lattice="16.2900001489832 0.0 0.0 0.0 16.2900001489832 0.0 0.0 0.0 29.29585470619324" Properties=species:S:1:pos:R:3:initial_magmoms:R:1 pbc="T T T"
Si       1.44609589      -0.28334826      -0.42821751       0.00000000
Si      -1.84842632      -0.42658623       1.21633459       0.00000000
Si       2.12949398       1.90329104      -0.07200921       0.00000000
Si      -0.60636268       1.38689803       2.48244284       0.00000000
Si       1.06836337      -1.14412816      -2.50681699       0.00000000
Si      -1.45740115      -2.59258610       0.01716737       0.00000000
Si      -2.79536728       0.95322565      -0.49507065       0.00000000
Si      -1.18304497       1.95923090      -1.99498911       0.00000000
Si       2.30739707      -1.93243385       0.96658743       0.00000000
Si       1.80916742       1.74524546       2.22595763       0.00000000
