10
Lattice="16.2900001489832 0.0 0.0 0.0 16.2900001489832 0.0 0.0 0.0 29.29585470619324" Properties=species:S:1:pos:R:3:initial_magmoms:R:1 pbc="T T T"
Si       1.46206009      -1.19122255       1.41628079       0.00000000
Si      -1.29502243       1.43718526       1.37415136       0.00000000
Si      -1.38468259      -1.88621912      -0.64919614       0.00000000
Si       1.23878935       1.35092971      -1.63198418       0.00000000
Si       2.46871694       2.66790129       0.03928574       0.00000000
Si      -0.12395061      -2.68428251      -2.50579164       0.00000000
Si       0.07196922      -2.60894126       2.67938129       0.00000000
Si       3.12407994      -2.15275610       0.03591672       0.00000000
Si      -2.71552673       0.10492389       2.68729117       0.00000000
Si      -2.73346202       2.75814789       0.07968472       0.00000000
