10
Lattice="16.2900001489832 0.0 0.0 0.0 16.2900001489832 0.0 0.0 0.0 29.29585470619324" Properties=species:S:1:pos:R:3:initial_magmoms:R:1 pbc="T T T"
Si      -1.31716054      -1.35553001       1.37350129       0.00000000
Si       1.44283789       1.30629511       1.32723727       0.00000000
Si      -1.35519769       1.50881239      -1.20502317       0.00000000
Si       1.18224676      -1.48450120      -1.40238934       0.00000000
Si       2.56323152      -0.08384463      -2.62719044       0.00000000
Si      -2.58149261      -2.71521722      -0.06752372       0.00000000
Si       0.07397289       2.72590346      -2.62467099       0.00000000
Si      -2.68224626       0.04049694       2.69135480       0.00000000
Si       0.10264329       2.68788260       2.71728749       0.00000000
Si       0.06473646      -2.68852055       2.74683236       0.00000000
