10
Lattice="16.2900001489832 0.0 0.0 0.0 16.2900001489832 0.0 0.0 0.0 29.29585470619324" Properties=species:S:1:pos:R:3:initial_magmoms:R:1 pbc="T T T"
Si      -1.12881556       1.13424013      -1.74037884       0.00000000
Si      -0.77669092       0.88848919       2.09415558       0.00000000
Si      -0.91439029      -2.19916631      -0.45042377       0.00000000
Si       2.44978796       0.65668249       0.08029994       0.00000000
Si       0.06421518      -3.14454018       1.50507454       0.00000000
Si       0.38064843       2.96323248       2.07631441       0.00000000
Si       2.36273420      -2.63112824       0.93503579       0.00000000
Si       0.62540569       2.11657601      -2.94238776       0.00000000
Si       2.18750267       2.93615850       0.51877100       0.00000000
Si      -2.16697727      -0.59999329      -2.97027741       0.00000000
