10
Lattice="16.2900001489832 0.0 0.0 0.0 16.2900001489832 0.0 0.0 0.0 29.29585470619324" Properties=species:S:1:pos:R:3:initial_magmoms:R:1 pbc="T T T"
Si      -1.35825207       1.29489961      -1.45746877       0.00000000
Si      -1.34838521      -1.42165666       1.35979639       0.00000000
Si       1.35415513       1.43024344       1.36281387       0.00000000
Si       1.40079340      -1.38982600      -1.38806689       0.00000000
Si       2.67832037      -0.14158845       2.47816565       0.00000000
Si      -2.69939963      -2.70993503      -0.13007359       0.00000000
Si      -2.80518690       2.61577101      -0.12172428       0.00000000
Si       2.75221182       2.73094131      -0.07819064       0.00000000
Si       0.01352070       2.66387538      -2.82974520       0.00000000
Si      -0.04230513      -2.95001705       2.57979297       0.00000000
