10
Lattice="16.2900001489832 0.0 0.0 0.0 16.2900001489832 0.0 0.0 0.0 29.29585470619324" Properties=species:S:1:pos:R:3:initial_magmoms:R:1 pbc="T T T"
Si       1.64302570       1.41110497      -0.84442372       0.00000000
Si       1.51975927      -1.91544338      -0.08935236       0.00000000
Si      -1.52413965      -0.39680811      -1.87997359       0.00000000
Si      -1.13104729       0.69706540       2.17659412       0.00000000
H        2.09477999       0.56164663      -2.01508607       0.00000000
Si      -1.17724573      -1.50545665       2.95141088       0.00000000
Si      -1.90149914      -2.75209779       1.10099681       0.00000000
Si      -0.17671392      -3.54349857      -0.30939352       0.00000000
H        0.25643718      -1.97675894       3.05845794       0.00000000
Si       0.51378660       3.12888549      -1.97823188       0.00000000
