10
Lattice="16.2900001489832 0.0 0.0 0.0 16.2900001489832 0.0 0.0 0.0 29.29585470619324" Properties=species:S:1:pos:R:3:initial_magmoms:R:1 pbc="T T T"
Si       0.26228529      -2.27947601      -0.43847106       0.00000000
Si      -1.80685424       0.02707398       1.55754341       0.00000000
Si      -0.68243698       0.92973547      -2.10074715       0.00000000
Si       2.14788213       0.61985080       0.87111224       0.00000000
H       -1.18188838       0.28577547       2.90869753       0.00000000
H        0.00291591       2.25372152       2.34917600       0.00000000
Si       1.42118034       2.54677862       1.94943406       0.00000000
Si      -2.18750267      -2.93615850      -0.51877100       0.00000000
Si       2.26813654      -2.30174444      -2.00568210       0.00000000
Si      -1.56209698      -0.81958249      -3.46115875       0.00000000
