10
Lattice="16.2900001489832 0.0 0.0 0.0 16.2900001489832 0.0 0.0 0.0 29.29585470619324" Properties=species:S:1:pos:R:3:initial_magmoms:R:1 pbc="T T T"
Si       1.84743263       1.31621572      -0.53769612       0.00000000
Si       0.40257477      -1.58003227      -1.67361359       0.00000000
Si       0.22392234       0.04541652       2.33716470       0.00000000
Si      -2.36677412       0.35104950      -0.03275277       0.00000000
H       -0.19243377      -0.70203385      -3.06443429       0.00000000
Si      -1.19195560      -1.80788051       2.69436905       0.00000000
Si      -2.35615304       2.68674230       0.01171834       0.00000000
Si      -0.59592079      -3.53572824      -0.92624704       0.00000000
Si       1.17991729       3.51960114      -0.50298053       0.00000000
Si      -0.78030730       2.16415910       2.97165432       0.00000000
