10
Lattice="16.2900001489832 0.0 0.0 0.0 16.2900001489832 0.0 0.0 0.0 29.29585470619324" Properties=species:S:1:pos:R:3:initial_magmoms:R:1 pbc="T T T"
Si       1.15724161       1.18560250       1.68909352       0.00000000
Si       1.46478052      -1.64822222      -1.06994321       0.00000000
Si      -1.57550365      -1.37213929       1.37590911       0.00000000
Si      -0.29941020       1.90832465      -1.63948392       0.00000000
Si       2.54733248       2.60332121       0.42599302       0.00000000
Si      -0.12232161      -2.82522360      -2.36666562       0.00000000
Si       0.96132178       1.11026125      -3.49607941       0.00000000
H       -2.34924608      -1.03803139      -2.87313236       0.00000000
Si       2.48644046      -0.17265771       3.06768320       0.00000000
Si       2.57105072      -2.98936164       0.49030099       0.00000000
