10
Lattice="16.2900001489832 0.0 0.0 0.0 16.2900001489832 0.0 0.0 0.0 29.29585470619324" Properties=species:S:1:pos:R:3:initial_magmoms:R:1 pbc="T T T"
Si       1.32919885      -1.35826021       1.37858968       0.00000000
Si       1.39009087       1.41771871      -1.26310050       0.00000000
Si      -1.15724161      -1.18560250      -1.68909352       0.00000000
Si      -1.40344867       1.35412255       1.39045450       0.00000000
Si      -1.45665181       0.72272215      -3.32857743       0.00000000
Si      -0.07196922       2.60894126      -2.67938129       0.00000000
Si      -2.73274527      -2.55774179      -0.31318441       0.00000000
Si      -0.10769319      -2.67944438       2.72227628       0.00000000
Si       2.67985163       0.02050911       2.73135800       0.00000000
Si       2.75560014      -2.67089213       0.01078087       0.00000000
