10
Lattice="16.2900001489832 0.0 0.0 0.0 16.2900001489832 0.0 0.0 0.0 29.29585470619324" Properties=species:S:1:pos:R:3:initial_magmoms:R:1 pbc="T T T"
Si      -1.29248934      -1.35120290       1.41561378       0.00000000
Si       1.35480673      -1.38329420      -1.37533198       0.00000000
Si       1.32282946       1.34553821       1.45762404       0.00000000
Si      -1.44560719       1.39610074      -1.30594475       0.00000000
Si      -0.18433764      -2.51522115      -2.75350859       0.00000000
Si      -2.61864098      -2.66639235      -0.00682300       0.00000000
Si       2.67455738       2.70468134       0.07040673       0.00000000
Si      -0.07297920       2.66991848      -2.71800202       0.00000000
Si      -2.66999993       0.03426439       2.72086129       0.00000000
Si       2.77531104      -0.05103282      -2.68847180       0.00000000
