10
Lattice="16.2900001489832 0.0 0.0 0.0 16.2900001489832 0.0 0.0 0.0 29.29585470619324" Properties=species:S:1:pos:R:3:initial_magmoms:R:1 pbc="T T T"
Si      -0.24858540      -0.76659112      -1.27765082       0.00000000
H        0.43346061       2.21265443       0.66694943       0.00000000
H        1.21834540      -1.34447887      -1.64560675       0.00000000
Si       1.02846916       1.33465600       2.05777013       0.00000000
Si       0.02997360      -0.62103997       2.80513668       0.00000000
Si      -0.89943607       0.83789245      -2.85004723       0.00000000
Si      -2.24503895      -0.20672010       2.28519385       0.00000000
Si      -2.10751877      -2.21234492      -1.01849968       0.00000000
Si       0.15672609       3.40801464      -0.52129044       0.00000000
Si       3.08524458      -1.64621854      -1.07278490       0.00000000
