10
Lattice="16.2900001489832 0.0 0.0 0.0 16.2900001489832 0.0 0.0 0.0 29.29585470619324" Properties=species:S:1:pos:R:3:initial_magmoms:R:1 pbc="T T T"
Si      -0.43921098      -1.07370649       2.03187259       0.00000000
Si       2.36729540       0.18037917      -0.35140378       0.00000000
Si      -1.19988883       2.05921892      -0.40730027       0.00000000
Si      -0.70165918      -1.61846038      -1.66667047       0.00000000
H        2.64402992      -1.01498104       0.83683609       0.00000000
Si      -1.56296035       0.03062520      -3.06147541       0.00000000
Si      -0.87956227       2.21726450      -2.70526711       0.00000000
Si      -2.66530466      -0.52219224       2.51452180       0.00000000
Si       1.31113324      -2.38974302      -2.68016056       0.00000000
Si       0.46968957       0.03810231       3.86851761       0.00000000
