10
Lattice="16.2900001489832 0.0 0.0 0.0 16.2900001489832 0.0 0.0 0.0 29.29585470619324" Properties=species:S:1:pos:R:3:initial_magmoms:R:1 pbc="T T T"
Si      -0.81174700       0.34608105       2.15971970       0.00000000
Si       2.08308377       1.03340503       0.33575979       0.00000000
Si      -0.09050724      -2.41595363       0.20058872       0.00000000
Si      -1.46684935       1.30039813      -1.43699097       0.00000000
H        1.66016279       0.27593631      -2.29459782       0.00000000
H        2.50545089       1.99459649      -0.73538454       0.00000000
H       -2.85161340      -1.67216852      -0.36701847       0.00000000
Si      -3.12834792      -0.47680830      -1.55525833       0.00000000
Si      -2.25660485      -2.55016694       1.02380223       0.00000000
Si      -1.47926233       2.54946647       2.19443529       0.00000000
