10
Lattice="16.2900001489832 0.0 0.0 0.0 16.2900001489832 0.0 0.0 0.0 29.29585470619324" Properties=species:S:1:pos:R:3:initial_magmoms:R:1 pbc="T T T"
Si       1.26752491      -1.18837180      -1.68700179       0.00000000
Si       2.05232825       1.18307755       0.66123674       0.00000000
Si      -0.99851185      -1.04291839       2.01757622       0.00000000
Si      -2.25668630      -0.34239951      -1.11174839       0.00000000
H       -0.59738689       2.58685202      -2.12969145       0.00000000
Si      -2.86114305      -1.79199287       0.73271862       0.00000000
H       -1.48897117       3.01431792       0.95536712       0.00000000
Si       0.57124144      -2.68424993       2.73025648       0.00000000
Si       2.80679961      -2.62249454      -0.60891434       0.00000000
Si       2.45011376       0.32182524      -3.07597686       0.00000000
