10
Lattice="16.2900001489832 0.0 0.0 0.0 16.2900001489832 0.0 0.0 0.0 29.29585470619324" Properties=species:S:1:pos:R:3:initial_magmoms:R:1 pbc="T T T"
Si      -1.37593486       1.37298637      -1.32551145       0.00000000
Si      -1.37722177      -1.28622257       1.44392823       0.00000000
Si       1.35698959       1.40976919       1.34924403       0.00000000
Si       1.33610581      -1.38314807      -1.43983560       0.00000000
Si       0.10005318       2.57924459      -2.71124932       0.00000000
Si      -2.75403630      -2.62182929       0.09408364       0.00000000
Si       2.69970914      -2.70814736      -0.05558010       0.00000000
Si       2.66075975       0.05795982       2.76780790       0.00000000
Si      -0.04408074      -2.72036486       2.74668559       0.00000000
Si      -2.71612946       2.75457387       0.06453877       0.00000000
