10
Lattice="16.2900001489832 0.0 0.0 0.0 16.2900001489832 0.0 0.0 0.0 29.29585470619324" Properties=species:S:1:pos:R:3:initial_magmoms:R:1 pbc="T T T"
Si      -0.42236712      -0.96119146       1.07114434       0.00000000
H        0.33951618       0.24928587      -2.11873480       0.00000000
H       -0.93064771       1.70196293      -1.31424134       0.00000000
H       -0.84528811      -1.71866018      -1.55921328       0.00000000
Si       1.75778061       0.54234297      -2.51847674       0.00000000
Si      -0.48003372       0.05035239       3.18908815       0.00000000
Si      -2.50545089      -1.99459649       0.73538454       0.00000000
Si       1.19197189      -2.58774797       1.67589866       0.00000000
Si      -1.01069677       3.09937290      -0.75009106       0.00000000
Si       3.25000164       0.96599701      -0.73512088       0.00000000
