10
Lattice="16.2900001489832 0.0 0.0 0.0 16.2900001489832 0.0 0.0 0.0 29.29585470619324" Properties=species:S:1:pos:R:3:initial_magmoms:R:1 pbc="T T T"
Si      -1.52928892       1.39902594       1.09056749       0.00000000
Si       1.41618745       1.24531350      -1.40614243       0.00000000
Si      -1.35223291      -1.40827866      -1.38502012       0.00000000
Si       0.94012849      -0.77475078       2.10938943       0.00000000
Si      -2.70353729      -0.20394266       2.35023065       0.00000000
Si      -0.99136054      -1.64560767       3.22280768       0.00000000
Si       3.23306004       1.98152376      -0.00864228       0.00000000
Si      -0.55801396       2.41433278       2.95533653       0.00000000
Si      -2.68460831      -2.80991914      -0.01895442       0.00000000
Si       0.08573427       2.66283673      -2.83560437       0.00000000
