10
Lattice="16.2900001489832 0.0 0.0 0.0 16.2900001489832 0.0 0.0 0.0 29.29585470619324" Properties=species:S:1:pos:R:3:initial_magmoms:R:1 pbc="T T T"
Si      -1.36725229       1.44840907      -1.25348174       0.00000000
Si      -1.47598804      -1.20625822       1.38573787       0.00000000
Si       1.21194343       1.50276880       1.36370446       0.00000000
Si       1.33224508      -1.45567441      -1.35645666       0.00000000
Si      -0.35559441      -2.59639796      -2.56868984       0.00000000
Si      -0.10005318      -2.57924459       2.71124932       0.00000000
Si       2.50172048       2.81790939      -0.08677432       0.00000000
Si       2.63674829       0.20026926       2.70156412       0.00000000
Si      -2.84485305       0.21335013      -2.56617039       0.00000000
Si      -2.91882594      -2.51255333       0.05850060       0.00000000
