10
Lattice="16.2900001489832 0.0 0.0 0.0 16.2900001489832 0.0 0.0 0.0 29.29585470619324" Properties=species:S:1:pos:R:3:initial_magmoms:R:1 pbc="T T T"
Si      -1.58429537      -1.41592030      -0.97338407       0.00000000
Si      -0.95706520       0.11953765       2.21851649       0.00000000
Si       2.29362062      -0.64149369      -0.45560913       0.00000000
Si      -0.07636752       2.15155716      -1.16327980       0.00000000
Si      -3.11542506       0.31491991      -1.59261055       0.00000000
Si       0.99341308       3.46648597       0.59370979       0.00000000
Si       2.57152802       0.08022011      -2.69835329       0.00000000
Si       3.58385379       0.77303870       0.95340430       0.00000000
Si       2.17400315       2.17302738       2.21834071       0.00000000
H       -3.78790885       0.32343469      -0.22039271       0.00000000
