10
Lattice="16.2900001489832 0.0 0.0 0.0 16.2900001489832 0.0 0.0 0.0 29.29585470619324" Properties=species:S:1:pos:R:3:initial_magmoms:R:1 pbc="T T T"
Si       0.60996277       1.10201851      -0.83859384       0.00000000
Si      -0.86115457      -2.26810559      -0.45745477       0.00000000
Si       0.08024454      -1.78696415       1.79779872       0.00000000
Si      -2.21822561      -0.45804222      -1.26531726       0.00000000
Si      -2.58167180       0.82025038       0.80540164       0.00000000
Si       2.26657433       1.38922750       1.00959374       0.00000000
Si      -1.21593448       0.13095531       2.72469026       0.00000000
Si       2.31886523      -0.84815515       1.80148999       0.00000000
Si      -1.18115533       1.15369039      -2.63481058       0.00000000
Si       1.90752644       0.30444381      -2.68399832       0.00000000
