10
Lattice="16.2900001489832 0.0 0.0 0.0 16.2900001489832 0.0 0.0 0.0 29.29585470619324" Properties=species:S:1:pos:R:3:initial_magmoms:R:1 pbc="T T T"
Si      -2.25486182      -0.70136596       0.34390404       0.00000000
Si       0.44323461       2.24404526      -0.75615531       0.00000000
Si       1.36573732      -0.68929507       1.91928863       0.00000000
Si       0.36344619      -1.27829260      -2.07071890       0.00000000
H        2.58167180      -0.82025038      -0.80540164       0.00000000
H       -2.29858418      -1.91427050      -0.57162072       0.00000000
H       -0.74170000      -2.77259061       1.44387550       0.00000000
Si       3.19163457       0.28176813      -1.64399548       0.00000000
Si       1.40051647       0.33344001      -3.44021222       0.00000000
H       -2.65367360       0.96907582       2.47180844       0.00000000
