10
Lattice="16.2900001489832 0.0 0.0 0.0 16.2900001489832 0.0 0.0 0.0 29.29585470619324" Properties=species:S:1:pos:R:3:initial_magmoms:R:1 pbc="T T T"
Si       0.90890056       1.11180880       1.83664502       0.00000000
Si       0.43921098       1.07370649      -2.03187259       0.00000000
Si      -2.22609368       0.55151425       0.48264921       0.00000000
Si       0.40474134      -2.36064908       0.42320792       0.00000000
H       -2.48241683       0.34603218       1.96217776       0.00000000
H        3.08324091       0.05872545      -1.19503651       0.00000000
H       -2.11035323      -1.84565702       2.01025225       0.00000000
Si      -0.73686187      -2.30272184       2.46272673       0.00000000
Si       0.02811654      -0.35321607       3.61001099       0.00000000
Si      -0.26244819      -0.54475390      -3.69854306       0.00000000
