10
Lattice="16.2900001489832 0.0 0.0 0.0 16.2900001489832 0.0 0.0 0.0 29.29585470619324" Properties=species:S:1:pos:R:3:initial_magmoms:R:1 pbc="T T T"
Si       0.88184287       1.76430476      -1.31813769       0.00000000
Si      -0.33410790       0.69652783       2.25434532       0.00000000
Si      -1.87717817      -0.86040523      -1.26534656       0.00000000
Si       1.72688663      -1.70991245      -0.21699440       0.00000000
Si       2.14972616       0.52256691      -2.86387487       0.00000000
Si      -0.69590881      -2.17725626      -2.82171813       0.00000000
Si       0.68872492      -3.44414586      -1.44689297       0.00000000
Si       2.61676046       2.76526011      -0.03618038       0.00000000
Si       3.48110787      -0.72757657      -1.41900331       0.00000000
Si      -0.29455578      -1.29450115       3.60467915       0.00000000
