10
Lattice="16.2900001489832 0.0 0.0 0.0 16.2900001489832 0.0 0.0 0.0 29.29585470619324" Properties=species:S:1:pos:R:3:initial_magmoms:R:1 pbc="T T T"
Si       1.71440849      -1.60974523       0.16792384       0.00000000
Si      -1.85605004      -1.03229731      -1.17742970       0.00000000
Si       0.75059434       1.95173750      -1.27741645       0.00000000
Si      -0.78763780      -0.32658192       2.37668480       0.00000000
H        2.33937434      -1.35104374       1.51907795       0.00000000
Si      -1.81649792      -3.02332629       0.17290413       0.00000000
H        2.25401474       2.06957936       1.76404989       0.00000000
H        3.52417863       0.61690231       0.95955642       0.00000000
Si       0.55706914      -3.68448852       0.18576501       0.00000000
Si      -1.12814767       3.43734642      -1.08866326       0.00000000
