10
Lattice="16.2900001489832 0.0 0.0 0.0 16.2900001489832 0.0 0.0 0.0 29.29585470619324" Properties=species:S:1:pos:R:3:initial_magmoms:R:1 pbc="T T T"
Si       1.28418958       1.36402687       1.42425899       0.00000000
Si      -1.43032717       1.44158356      -1.19650716       0.00000000
Si      -1.42570081      -1.29051010       1.39508032       0.00000000
Si       1.40553379      -1.38178297      -1.39138904       0.00000000
Si       2.62743041       2.67548591       0.02318474       0.00000000
Si      -2.71546157       0.10669950      -2.59937818       0.00000000
Si       2.59864598      -2.76157857       0.08886898       0.00000000
Si      -0.17747955       2.66804138      -2.74840819       0.00000000
Si      -0.10409310      -2.67985163       2.75144910       0.00000000
Si       2.70119153       0.05079222       2.73615666       0.00000000
