10
Lattice="16.2900001489832 0.0 0.0 0.0 16.2900001489832 0.0 0.0 0.0 29.29585470619324" Properties=species:S:1:pos:R:3:initial_magmoms:R:1 pbc="T T T"
Si       0.84390346       1.73863172      -1.37895588       0.00000000
Si      -1.73491760      -1.00095535      -1.28195731       0.00000000
Si      -0.34422399       0.91530253       2.19053894       0.00000000
Si       1.74400742      -1.74351872      -0.02241133       0.00000000
Si       1.71545105       2.31886523       2.14888024       0.00000000
Si       2.27439353       0.50526693      -2.75064639       0.00000000
Si      -0.46703430      -2.24269319      -2.82769449       0.00000000
Si      -1.09481833      -1.03643497       3.46795539       0.00000000
Si      -2.61676046      -2.76526011       0.03618038       0.00000000
Si       1.70020361       3.42692082       0.01256792       0.00000000
