10
Lattice="16.2900001489832 0.0 0.0 0.0 16.2900001489832 0.0 0.0 0.0 29.29585470619324" Properties=species:S:1:pos:R:3:initial_magmoms:R:1 pbc="T T T"
Si      -0.44352783       1.98382880       1.29672242       0.00000000
Si       1.46684935      -1.30039813       1.43699097       0.00000000
Si      -1.66149857      -1.77720644      -0.11826737       0.00000000
Si       0.78763780       0.32658192      -2.37668480       0.00000000
H        3.12701214      -1.02446182      -0.85760685       0.00000000
H       -1.38476404      -2.97256665       1.06997250       0.00000000
Si       2.50204628      -1.28316331      -2.20876097       0.00000000
Si      -1.02886012      -2.69674436      -2.20378067       0.00000000
Si      -1.06841224      -0.70571539      -3.55411450       0.00000000
Si       0.65510236      -0.95431708       3.59671067       0.00000000
