10
Lattice="16.2900001489832 0.0 0.0 0.0 16.2900001489832 0.0 0.0 0.0 29.29585470619324" Properties=species:S:1:pos:R:3:initial_magmoms:R:1 pbc="T T T"
Si      -0.62496586      -0.25870149      -1.35115411       0.00000000
H        1.18480429       1.96794605      -0.55952153       0.00000000
H        0.84528811       1.71866018       1.55921328       0.00000000
Si       0.42292098       0.75746872       2.63035761       0.00000000
Si      -1.66016279      -0.27593631       2.29459782       0.00000000
Si      -2.33937434       1.35104374      -1.51907795       0.00000000
Si       1.18188838      -0.28577547      -2.90869753       0.00000000
Si      -1.78230521      -2.33344478      -1.33331294       0.00000000
Si      -3.12701214       1.02446182       0.85760685       0.00000000
H       -0.08535960       3.42062310       0.24497194       0.00000000
