10
Lattice="16.2900001489832 0.0 0.0 0.0 16.2900001489832 0.0 0.0 0.0 29.29585470619324" Properties=species:S:1:pos:R:3:initial_magmoms:R:1 pbc="T T T"
H       -0.59500855       0.87799843      -1.39082070       0.00000000
Si      -0.99849556      -1.95569597       0.74736655       0.00000000
Si       2.16609761       0.13421331      -0.82321352       0.00000000
Si      -0.40257477       1.58003227       1.67361359       0.00000000
H       -1.02846916      -1.33465600      -2.05777013       0.00000000
Si      -0.87174307       2.07335864      -2.57906057       0.00000000
Si       1.44485785       2.89624800       1.13591747       0.00000000
Si       3.14528952      -1.00126486       1.01603883       0.00000000
Si       2.25660485       2.55016694      -1.02380223       0.00000000
Si      -3.27350811      -1.54137610       0.22742372       0.00000000
