10
Lattice="16.2900001489832 0.0 0.0 0.0 16.2900001489832 0.0 0.0 0.0 29.29585470619324" Properties=species:S:1:pos:R:3:initial_magmoms:R:1 pbc="T T T"
Si      -1.13562478       1.15628050       1.64519661       0.00000000
Si      -1.51609402      -1.21068910      -1.27223108       0.00000000
Si       1.17424837       1.60296859      -1.25966316       0.00000000
Si       1.71217676      -1.44166501       0.87257703       0.00000000
Si       2.14552334       2.61827543       0.60510588       0.00000000
Si       0.69851521       2.33289092       2.43302073       0.00000000
Si       0.01892898      -2.60597648      -2.36918507       0.00000000
Si       2.70353729       0.20394266      -2.35023065       0.00000000
Si       1.08062974      -3.44318475      -0.30025321       0.00000000
Si       3.64366578      -0.57080812      -0.24084122       0.00000000
