10
Lattice="16.2900001489832 0.0 0.0 0.0 16.2900001489832 0.0 0.0 0.0 29.29585470619324" Properties=species:S:1:pos:R:3:initial_magmoms:R:1 pbc="T T T"
Si       1.28518327      -1.35674524       1.44428564       0.00000000
Si      -1.33222879      -1.38961846      -1.37735633       0.00000000
Si      -1.35229807       1.29200878       1.46036906       0.00000000
Si       1.33248943       1.32356251      -1.46889708       0.00000000
Si      -2.71453304       2.62930376       0.05624804       0.00000000
Si       2.68018721      -2.67090842       0.07036864       0.00000000
Si       2.76781926       0.02622690       2.65461458       0.00000000
Si       2.71348723       2.74124865      -0.15705508       0.00000000
Si       0.02456532       2.67683798       2.78855523       0.00000000
Si      -0.08563653       2.65934252      -2.80486130       0.00000000
