10
Lattice="16.2900001489832 0.0 0.0 0.0 16.2900001489832 0.0 0.0 0.0 29.29585470619324" Properties=species:S:1:pos:R:3:initial_magmoms:R:1 pbc="T T T"
Si       1.11006251      -1.10902321      -1.68123051       0.00000000
Si      -0.87568525      -1.91462888       1.05183837       0.00000000
Si       1.66399745       1.22678362       1.18595479       0.00000000
Si      -1.73701901       1.56999763      -0.70052248       0.00000000
H        2.05235594      -2.08362134      -1.04477807       0.00000000
Si      -1.99775675      -0.42940440       2.51912125       0.00000000
H        0.32224878      -1.94276171      -2.62057280       0.00000000
Si       1.99277201       0.76981654      -2.61758462       0.00000000
Si       2.71702541       2.01645767      -0.76717055       0.00000000
Si      -3.26809983       0.90215650       1.01527714       0.00000000
