10
Lattice="16.2900001489832 0.0 0.0 0.0 16.2900001489832 0.0 0.0 0.0 29.29585470619324" Properties=species:S:1:pos:R:3:initial_magmoms:R:1 pbc="T T T"
Si      -2.14514867      -0.80295040       0.58322188       0.00000000
Si       0.04354317       2.31774122       0.71906675       0.00000000
Si       1.86544937      -1.03250908       1.18531028       0.00000000
Si       0.03697830      -0.12326643      -2.46334194       0.00000000
Si       2.33225561       2.71213841       0.20193633       0.00000000
Si       3.36412938       0.85286947       1.22254531       0.00000000
Si      -3.63794799       0.89059060      -0.22469921       0.00000000
Si       2.30897720      -3.01633788      -0.11141214       0.00000000
Si      -2.33802227      -0.89521696       2.90512343       0.00000000
Si      -0.97668325       3.65128950      -0.90289824       0.00000000
