10
Lattice="16.2900001489832 0.0 0.0 0.0 16.2900001489832 0.0 0.0 0.0 29.29585470619324" Properties=species:S:1:pos:R:3:initial_magmoms:R:1 pbc="T T T"
Si      -1.41812596       1.33578001      -1.33596421       0.00000000
Si       1.31617337      -1.33714837      -1.45513096       0.00000000
Si       1.38099779       1.41768613       1.31184201       0.00000000
Si      -1.33248943      -1.32356251       1.46889708       0.00000000
Si       2.64438830      -2.65711079       0.05039473       0.00000000
Si      -2.66471822      -2.71318097       0.09154076       0.00000000
Si      -2.73059498       2.65209347       0.11133011       0.00000000
Si       2.54194049       0.17080065      -2.85464374       0.00000000
Si       2.71663445       0.06095718       2.69665706       0.00000000
Si      -0.00612504       2.72057663       2.76034625       0.00000000
