10
Lattice="16.2900001489832 0.0 0.0 0.0 16.2900001489832 0.0 0.0 0.0 29.29585470619324" Properties=species:S:1:pos:R:3:initial_magmoms:R:1 pbc="T T T"
H       -1.86689918       0.30173967      -0.57282185       0.00000000
Si       0.90668512       2.15821325       0.31783073       0.00000000
Si       0.91859311      -0.55949635      -2.11023901       0.00000000
Si      -0.33301647      -1.63872515       1.76114960       0.00000000
H        3.06675543      -0.85867849       0.84392569       0.00000000
Si      -3.33382998       0.87962743      -0.20486591       0.00000000
H       -3.08524458       1.64621854       1.07278490       0.00000000
H       -2.92933299      -1.00170469      -2.06172507       0.00000000
Si       0.07768701       3.47353302      -1.52115796       0.00000000
Si       0.74393173      -2.84607480      -2.45361572       0.00000000
