10
Lattice="16.2900001489832 0.0 0.0 0.0 16.2900001489832 0.0 0.0 0.0 29.29585470619324" Properties=species:S:1:pos:R:3:initial_magmoms:R:1 pbc="T T T"
Si      -2.25287444      -0.48117402       0.23911277       0.00000000
Si       1.14458428      -0.79817743       1.87587217       0.00000000
Si       0.12051342      -1.30833136      -1.93528416       0.00000000
Si      -0.20284145       2.34851303       0.30529210       0.00000000
H        2.13247505       1.19133658      -1.22679321       0.00000000
H        2.50453865      -1.00035262      -1.17871871       0.00000000
H       -1.35108935      -1.39577608      -2.35137319       0.00000000
Si      -0.58020094      -0.00677664       3.28626250       0.00000000
Si      -2.56836287       0.72413938       2.20465955       0.00000000
Si       2.84105748       0.82987777       2.09591333       0.00000000
