10
Lattice="16.2900001489832 0.0 0.0 0.0 16.2900001489832 0.0 0.0 0.0 29.29585470619324" Properties=species:S:1:pos:R:3:initial_magmoms:R:1 pbc="T T T"
Si       1.37251396      -1.37007046      -1.33377874       0.00000000
Si       1.44726877       1.36836001       1.30172908       0.00000000
Si      -1.29669053      -1.33736014       1.48887100       0.00000000
Si      -1.32821494       1.31996242      -1.50552569       0.00000000
Si       2.69514794       0.16583220      -2.58315994       0.00000000
Si      -2.64438830       2.65711079      -0.05039473       0.00000000
Si      -2.64205883      -2.66584223       0.11232324       0.00000000
Si       0.07224615       2.71806797       2.64626233       0.00000000
Si      -0.00446346      -2.76315870      -2.69897143       0.00000000
Si       2.74307313      -2.72839583       0.08943731       0.00000000
