10
Lattice="16.2900001489832 0.0 0.0 0.0 16.2900001489832 0.0 0.0 0.0 29.29585470619324" Properties=species:S:1:pos:R:3:initial_magmoms:R:1 pbc="T T T"
Si      -1.30582270       1.36822969       1.40611314       0.00000000
Si       1.31610169      -1.37565793       1.40784159       0.00000000
Si      -1.40836825      -1.44414109      -1.24117455       0.00000000
Si       1.41648980       1.43718526      -1.28990234       0.00000000
Si      -2.60148044      -0.06434550      -2.72143256       0.00000000
Si       2.57138630       0.06498081       2.78799860       0.00000000
Si       2.70322453      -2.67854843      -0.04066265       0.00000000
Si       2.70259736       0.05281218      -2.69187598       0.00000000
Si      -2.69847110       0.01114236       2.69726934       0.00000000
Si      -2.72282465       2.68146434       0.09421547       0.00000000
