10
Lattice="16.2900001489832 0.0 0.0 0.0 16.2900001489832 0.0 0.0 0.0 29.29585470619324" Properties=species:S:1:pos:R:3:initial_magmoms:R:1 pbc="T T T"
Si      -1.33138171       1.25014348      -1.44487155       0.00000000
Si      -1.75422125      -0.98233588       1.20200892       0.00000000
Si       0.87966001       1.74931796       1.36041160       0.00000000
Si       1.38139201      -1.50395797      -1.23719324       0.00000000
Si      -2.59926500       2.49188132       0.10086563       0.00000000
Si      -0.62540569      -2.11657601       2.94238776       0.00000000
Si       0.06126669       2.60723081      -2.73602776       0.00000000
Si       2.66520692       2.68552055       0.12248597       0.00000000
Si       1.82438228      -1.45989352       3.02268770       0.00000000
Si      -3.48110787       0.72757657       1.41900331       0.00000000
