10
Lattice="16.2900001489832 0.0 0.0 0.0 16.2900001489832 0.0 0.0 0.0 29.29585470619324" Properties=species:S:1:pos:R:3:initial_magmoms:R:1 pbc="T T T"
Si      -0.82186309      -1.15600357       1.82700668       0.00000000
Si       1.44642169       1.54914643       1.05596908       0.00000000
Si       0.94721464      -1.92163358      -1.01454474       0.00000000
Si      -1.96319914       0.93587680      -1.08066549       0.00000000
H       -2.29346586      -1.24344829       1.41091766       0.00000000
H        1.19009854       1.34366437       2.53549763       0.00000000
H        1.56216214      -0.84802483       2.58357213       0.00000000
Si      -0.74575621       1.95872591      -2.87547603       0.00000000
Si      -0.79985530      -3.50793750      -0.58404216       0.00000000
Si       1.57744216      -1.20715417      -3.14133591       0.00000000
