10
Lattice="16.2900001489832 0.0 0.0 0.0 16.2900001489832 0.0 0.0 0.0 29.29585470619324" Properties=species:S:1:pos:R:3:initial_magmoms:R:1 pbc="T T T"
H       -0.25632315      -0.20548206       1.47952855       0.00000000
Si       2.22609368      -0.55151425      -0.48264921       0.00000000
Si      -0.86108941       2.16279074      -0.33107245       0.00000000
Si      -1.44642169      -1.54914643      -1.05596908       0.00000000
H        0.11574045      -2.39717126       1.52760305       0.00000000
Si       3.13499424       0.56029456       1.35399581       0.00000000
Si      -2.85268854       1.90343765       0.84788063       0.00000000
Si      -0.95011426       2.22306374      -2.66533686       0.00000000
H        1.02727999       1.91014913       2.87650138       0.00000000
Si      -2.26828478      -2.70515000       0.77103760       0.00000000
