10
Lattice="16.2900001489832 0.0 0.0 0.0 16.2900001489832 0.0 0.0 0.0 29.29585470619324" Properties=species:S:1:pos:R:3:initial_magmoms:R:1 pbc="T T T"
Si      -1.31617337       1.33714837       1.45513096       0.00000000
Si       1.22576713       1.50794902      -1.39951278       0.00000000
Si       1.32821494      -1.31996242       1.50552569       0.00000000
Si      -1.32426950      -1.42192153      -1.44181600       0.00000000
Si      -2.61647376      -2.71006958       0.12683640       0.00000000
Si       2.70072890      -2.69003288       0.17174695       0.00000000
Si      -2.73429933       2.67292838       0.11916675       0.00000000
Si       2.72653226       0.10366956      -2.68741715       0.00000000
Si      -0.45416520       2.89779555      -2.57483318       0.00000000
Si       0.06482443       2.75483451       2.76697297       0.00000000
