10
Lattice="16.2900001489832 0.0 0.0 0.0 16.2900001489832 0.0 0.0 0.0 29.29585470619324" Properties=species:S:1:pos:R:3:initial_magmoms:R:1 pbc="T T T"
Si      -1.37502262       1.34970796       1.34453325       0.00000000
Si      -1.44726877      -1.36836001      -1.30172908       0.00000000
Si       1.27640296       1.45779211      -1.39587424       0.00000000
Si       1.34648254      -1.38018655       1.44873861       0.00000000
Si       2.71898021      -0.01425375      -2.50362960       0.00000000
Si       2.65585646       2.71195922       0.05633593       0.00000000
Si      -0.07475481      -2.73843048      -2.63550782       0.00000000
Si      -2.71065928       2.70643691      -0.04028180       0.00000000
Si      -2.65632725      -0.00858483       2.77138786       0.00000000
Si      -2.74395930      -2.70572015       0.18714192       0.00000000
