10
Lattice="16.2900001489832 0.0 0.0 0.0 16.2900001489832 0.0 0.0 0.0 29.29585470619324" Properties=species:S:1:pos:R:3:initial_magmoms:R:1 pbc="T T T"
Si      -0.05132979      -2.34574373       0.23840967       0.00000000
Si       0.87237838       0.78112180       2.05311209       0.00000000
Si       1.16884009       1.38352600      -1.54755352       0.00000000
Si      -2.37565217       0.24959538      -0.48859626       0.00000000
Si      -0.15369615       1.10296333      -3.45729170       0.00000000
Si      -1.87219343      -2.50888808       1.93753994       0.00000000
Si      -2.30166299       1.65333728      -2.44131146       0.00000000
Si      -1.25157700      -3.16856793      -1.55247523       0.00000000
Si       1.26418546       3.49228281      -0.49483628       0.00000000
Si       2.29689002       2.70940169       1.55458453       0.00000000
