10
Lattice="16.2900001489832 0.0 0.0 0.0 16.2900001489832 0.0 0.0 0.0 29.29585470619324" Properties=species:S:1:pos:R:3:initial_magmoms:R:1 pbc="T T T"
Si      -1.26496738       1.37113420       1.39923740       0.00000000
Si       1.37262799       1.27381774      -1.41205727       0.00000000
Si      -1.75844036      -0.77967199      -1.41188149       0.00000000
Si       1.44560719      -1.39610074       1.30594475       0.00000000
Si      -2.56759724       2.64686927      -0.09177512       0.00000000
Si      -2.52161057      -2.74660317      -0.16125317       0.00000000
Si      -2.64899837      -0.06251939       2.66674599       0.00000000
Si      -0.80137515      -0.89920964      -3.63039798       0.00000000
Si       2.74960542       2.66690597      -0.04686458       0.00000000
Si       2.78247864      -0.12617094      -2.67699368       0.00000000
