10
Lattice="16.2900001489832 0.0 0.0 0.0 16.2900001489832 0.0 0.0 0.0 29.29585470619324" Properties=species:S:1:pos:R:3:initial_magmoms:R:1 pbc="T T T"
Si       1.37502262      -1.34970796      -1.34453325       0.00000000
Si      -1.28130462      -1.35829279       1.42685460       0.00000000
Si       1.27819486       1.35317773       1.43860224       0.00000000
Si      -1.33563666       1.35672895      -1.38481505       0.00000000
Si      -0.07224615      -2.71806797      -2.64626233       0.00000000
Si      -2.72275949       2.65961945       0.06368919       0.00000000
Si       2.65142558       0.10808415      -2.74040749       0.00000000
Si       2.70689303      -0.05422941       2.69225975       0.00000000
Si      -2.71663445      -0.06095718      -2.69665706       0.00000000
Si      -0.23218137       2.66418065       2.77557716       0.00000000
