10
Lattice="16.2900001489832 0.0 0.0 0.0 16.2900001489832 0.0 0.0 0.0 29.29585470619324" Properties=species:S:1:pos:R:3:initial_magmoms:R:1 pbc="T T T"
Si       1.93217321      -0.99988021       0.93330734       0.00000000
Si       0.71926867      -0.10248039      -2.25991153       0.00000000
Si      -2.30999044      -0.69898762      -0.03890490       0.00000000
Si      -0.39102516       2.16599987       1.19916722       0.00000000
H        1.45740115       2.59258610      -0.01716737       0.00000000
Si      -1.60846810       1.14315076       2.99397776       0.00000000
Si      -1.21771172       0.62421652      -3.38903236       0.00000000
Si       2.90349705       2.30923784      -0.44538488       0.00000000
Si       1.30194568      -1.71435962       3.06009850       0.00000000
Si      -3.22356297       0.64648495      -1.82182132       0.00000000
