10
Lattice="16.2900001489832 0.0 0.0 0.0 16.2900001489832 0.0 0.0 0.0 29.29585470619324" Properties=species:S:1:pos:R:3:initial_magmoms:R:1 pbc="T T T"
Si      -1.22021875       1.50048820      -1.29317762       0.00000000
Si       0.97127497       1.01530684       1.86476904       0.00000000
Si       1.52928892      -1.39902594      -1.09056749       0.00000000
Si      -1.17424837      -1.60296859       1.25966316       0.00000000
H        1.14761422       2.51915078       1.75268310       0.00000000
Si       2.46941741      -2.17377672       1.01882194       0.00000000
Si      -2.61645095       0.05887206      -2.56892420       0.00000000
Si      -2.30987315      -0.44668809       2.90485977       0.00000000
Si       0.17705601      -2.80730460      -2.47558761       0.00000000
Si       2.89999470      -0.21862809       2.36408759       0.00000000
