10
Lattice="16.2900001489832 0.0 0.0 0.0 16.2900001489832 0.0 0.0 0.0 29.29585470619324" Properties=species:S:1:pos:R:3:initial_magmoms:R:1 pbc="T T T"
Si      -2.02654118       1.13306725      -0.64225302       0.00000000
Si      -0.75443878      -1.86365584       1.32765884       0.00000000
Si       1.80755471       1.00519075       1.29177142       0.00000000
Si       1.07385310      -0.57528136      -2.12535567       0.00000000
H       -0.85447567       0.36921285       2.79086960       0.00000000
Si       1.30973230      -2.32398192       2.44840106       0.00000000
Si       0.05362668       0.75826693      -3.74732066       0.00000000
Si       2.84462499       2.61692336      -0.07772190       0.00000000
Si       3.16462575      -0.80487262       2.09963391       0.00000000
Si      -3.36929331       1.56742381       1.20285850       0.00000000
