10
Lattice="16.2900001489832 0.0 0.0 0.0 16.2900001489832 0.0 0.0 0.0 29.29585470619324" Properties=species:S:1:pos:R:3:initial_magmoms:R:1 pbc="T T T"
Si       1.02200855      -1.19949787      -1.76648145       0.00000000
Si      -1.61433901       1.62655651      -0.60475433       0.00000000
Si       1.57894084       1.31720941       1.21803375       0.00000000
Si      -1.29259522      -1.25421598       1.61745343       0.00000000
H       -1.19197189       2.58774797      -1.67589866       0.00000000
Si      -1.67200562       2.63810036       1.51318949       0.00000000
H        0.69174182      -3.37882296       0.72510170       0.00000000
Si      -2.43978590       0.54258732       2.64292553       0.00000000
Si       2.98520769      -2.13537467      -0.68581596       0.00000000
Si       0.56896246       3.44070867       1.46403104       0.00000000
