10
Lattice="16.2900001489832 0.0 0.0 0.0 16.2900001489832 0.0 0.0 0.0 29.29585470619324" Properties=species:S:1:pos:R:3:initial_magmoms:R:1 pbc="T T T"
Si       1.33563666      -1.35672895       1.38481505       0.00000000
Si      -1.38099779      -1.41768613      -1.31184201       0.00000000
Si       1.42182705       1.36220239      -1.35688438       0.00000000
Si      -1.38712283       1.30289050       1.44850424       0.00000000
Si      -2.70322453       2.67854843       0.04066265       0.00000000
Si      -0.00062717       2.73136061      -2.65121333       0.00000000
Si       2.70301927       2.70617627       0.14940886       0.00000000
Si       2.71065928      -2.70643691       0.04028180       0.00000000
Si       2.61383152      -0.00355122       2.82341729       0.00000000
Si      -2.79912376      -0.08190612      -2.64780622       0.00000000
