10
Lattice="16.2900001489832 0.0 0.0 0.0 16.2900001489832 0.0 0.0 0.0 29.29585470619324" Properties=species:S:1:pos:R:3:initial_magmoms:R:1 pbc="T T T"
Si      -1.23529352       1.43607754      -1.33173096       0.00000000
Si       1.42731352       1.31373964       1.31936811       0.00000000
Si       1.51037623      -1.31100292      -1.33697492       0.00000000
Si      -1.34353568      -1.35006634       1.47788798       0.00000000
Si       0.59344471      -2.07676325       2.60700881       0.00000000
Si       2.39994056      -0.52582491       2.34293598       0.00000000
Si      -2.49057812      -0.00456120      -2.71188797       0.00000000
Si      -2.44284207      -2.85061971       0.10818959       0.00000000
Si      -2.50856228       2.81761617       0.14489730       0.00000000
Si       0.27013707       2.77635360      -2.57926564       0.00000000
