10
Lattice="16.290000149 0.0 0.0 0.0 16.290000149 0.0 0.0 0.0 29.1751946751" Properties=species:S:1:pos:R:3:initial_magmoms:R:1 pbc="T T T"
Si      -1.34380121      -1.32835177       1.38316972       0.00000000
Si       1.36353817       1.36819711       1.36204688       0.00000000
Si      -1.39288949       1.33669225      -1.36910144       0.00000000
Si       1.38636046      -1.36813195      -1.35280126       0.00000000
Si       2.68152950       0.11806992      -2.62968342       0.00000000
Si      -2.67491576      -2.68923467       0.00585546       0.00000000
Si      -2.60455306      -0.15838767      -2.76892728       0.00000000
Si      -0.04382010       2.79904557      -2.59109718       0.00000000
Si      -2.69866658       0.05862771       2.71414210       0.00000000
Si       0.02580336      -2.67737555       2.74588471       0.00000000
