10
Lattice="16.290000149 0.0 0.0 0.0 16.290000149 0.0 0.0 0.0 29.1751946751" Properties=species:S:1:pos:R:3:initial_magmoms:R:1 pbc="T T T"
Si      -1.33504696      -1.36395683       1.36939611       0.00000000
Si       1.35009892      -1.34956787      -1.37310136       0.00000000
Si       1.36018243       1.34570062       1.36770395       0.00000000
Si      -1.36909306       1.34447887      -1.36370695       0.00000000
Si      -2.69721677      -2.70633917      -0.00790648       0.00000000
Si       2.71366967       2.69304653      -0.00662277       0.00000000
Si      -0.00969255       2.73297332       2.67851627       0.00000000
Si       2.72416043      -2.69602760      -0.03626477       0.00000000
Si      -2.76025908      -0.00190593       2.66807155       0.00000000
Si      -0.01923849       2.70922250      -2.72032433       0.00000000
