10
Lattice="16.290000149 0.0 0.0 0.0 16.290000149 0.0 0.0 0.0 29.1751946751" Properties=species:S:1:pos:R:3:initial_magmoms:R:1 pbc="T T T"
Si       1.60886557      -0.19007172      -1.68311698       0.00000000
Si      -0.44266446       2.29080571      -0.29983348       0.00000000
Si       0.23770368      -0.51212502       2.30187764       0.00000000
Si      -1.90338878      -1.29793834      -0.62309463       0.00000000
H        1.32045112      -2.23168115       1.50185150       0.00000000
H       -2.78412393      -0.44136126      -1.50894107       0.00000000
Si      -1.50599422       1.03042396       2.75379411       0.00000000
Si       0.03678282      -0.95449627      -3.26922644       0.00000000
Si      -2.33743583       2.27390646       1.03930796       0.00000000
Si      -0.87925276      -2.78855481      -2.09600434       0.00000000
