10
Lattice="16.290000149 0.0 0.0 0.0 16.290000149 0.0 0.0 0.0 29.1751946751" Properties=species:S:1:pos:R:3:initial_magmoms:R:1 pbc="T T T"
Si       1.32851793      -1.36073629       1.37380157       0.00000000
Si      -1.37009978      -1.36920709      -1.32472889       0.00000000
Si      -1.36571777       1.35112519       1.34958616       0.00000000
Si       1.36823295       1.36472734      -1.34407204       0.00000000
Si      -2.69574742       0.01415601      -2.68429296       0.00000000
Si       0.00986685      -2.71717202      -2.66559166       0.00000000
Si       2.68399255       0.00726534       2.71136754       0.00000000
Si      -0.02337941       2.71213841       2.70354859       0.00000000
Si       2.72737282       0.01009980      -2.69867633       0.00000000
Si      -2.70201907       2.72639217      -0.00364690       0.00000000
