10
Lattice="16.290000149 0.0 0.0 0.0 16.290000149 0.0 0.0 0.0 29.1751946751" Properties=species:S:1:pos:R:3:initial_magmoms:R:1 pbc="T T T"
Si       1.34428339       1.35521398      -1.36577839       0.00000000
Si      -1.35684298      -1.36290286      -1.34981956       0.00000000
Si       1.38926008      -1.34848621       1.33333557       0.00000000
Si      -1.38432421       1.35461125       1.33459011       0.00000000
Si       0.02555901      -2.69873174       2.68274668       0.00000000
Si      -0.02884959       2.72261288       2.67215608       0.00000000
Si      -2.70297529      -0.00182448      -2.70480312       0.00000000
Si       2.70508484      -0.00159479      -2.70489065       0.00000000
Si       2.71738379       2.70233183      -0.02246490       0.00000000
Si       2.70870122      -2.71718831      -0.05035639       0.00000000
