10
Lattice="16.290000149 0.0 0.0 0.0 16.290000149 0.0 0.0 0.0 29.1751946751" Properties=species:S:1:pos:R:3:initial_magmoms:R:1 pbc="T T T"
Si       1.35547462       1.36800163       1.33756598       0.00000000
Si      -1.32851793       1.36073629      -1.37380157       0.00000000
Si       1.38432421      -1.35461125      -1.33459011       0.00000000
Si      -1.34770103      -1.35367132       1.37596053       0.00000000
Si       2.71054199       0.00133578       2.67472350       0.00000000
Si      -2.69861771      -0.00847080      -2.69853046       0.00000000
Si       0.05820417      -2.69203655       2.70880012       0.00000000
Si       0.02748123      -2.71751411      -2.68440966       0.00000000
Si      -2.69423570       2.71186148      -0.02421541       0.00000000
Si      -0.02277342       2.71353935       2.69508778       0.00000000
