10
Lattice="16.290000149 0.0 0.0 0.0 16.290000149 0.0 0.0 0.0 29.1751946751" Properties=species:S:1:pos:R:3:initial_magmoms:R:1 pbc="T T T"
Si      -1.37140624      -1.40634829      -1.31254241       0.00000000
Si      -1.34653141       1.27998676       1.45972252       0.00000000
Si       1.33981993      -1.33595920       1.42234909       0.00000000
Si       1.34131861       1.41688792      -1.36098490       0.00000000
Si       2.67100616      -0.02660157      -2.67285920       0.00000000
Si       0.06033816      -2.77887855      -2.59658066       0.00000000
Si      -2.67981905      -2.69617421       0.15807120       0.00000000
Si      -2.77993740       2.59926500       0.17583890       0.00000000
Si      -2.72005535      -0.04303818      -2.68891431       0.00000000
Si       2.68442912       2.74701531       0.03395993       0.00000000
