10
Lattice="16.290000149 0.0 0.0 0.0 16.290000149 0.0 0.0 0.0 29.1751946751" Properties=species:S:1:pos:R:3:initial_magmoms:R:1 pbc="T T T"
Si      -1.30227767      -1.29487582       1.46731682       0.00000000
Si      -1.45074473       1.38056122      -1.23152873       0.00000000
Si       1.35887630       1.39600414       1.31928188       0.00000000
Si       1.43507115      -1.30146350      -1.35263496       0.00000000
Si      -2.63237247      -2.63313680       0.13670913       0.00000000
Si      -0.12920218       2.71047683      -2.59416612       0.00000000
Si       0.06005634      -2.49671945      -2.82817627       0.00000000
Si       2.70753844      -2.68245803       0.03353105       0.00000000
Si       2.65252711       0.03846069       2.74694086       0.00000000
Si       0.00686395       2.72047889       2.72491358       0.00000000
