10
Lattice="16.290000149 0.0 0.0 0.0 16.290000149 0.0 0.0 0.0 29.1751946751" Properties=species:S:1:pos:R:3:initial_magmoms:R:1 pbc="T T T"
Si      -1.37904625       1.34736220       1.32108199       0.00000000
Si      -1.37042884      -1.36106209      -1.32811321       0.00000000
Si       1.35179308       1.39134520      -1.32720878       0.00000000
Si       1.35597961      -1.32972013       1.38783484       0.00000000
Si       0.04103451       2.65735514       2.63498688       0.00000000
Si       0.01485648      -2.67574655      -2.68627687       0.00000000
Si       2.70314633      -2.67744071       0.02138542       0.00000000
Si      -2.72613152       0.00943191      -2.66751722       0.00000000
Si      -2.72787455      -0.01075140       2.67422752       0.00000000
Si       2.69594615       0.06009381      -2.71343898       0.00000000
