10
Lattice="16.290000149 0.0 0.0 0.0 16.290000149 0.0 0.0 0.0 29.1751946751" Properties=species:S:1:pos:R:3:initial_magmoms:R:1 pbc="T T T"
Si       1.37437102       1.34263810      -1.34223401       0.00000000
Si       1.36220239      -1.39439143       1.30474388       0.00000000
Si      -1.35420400      -1.35311257      -1.36137293       0.00000000
Si      -1.35211888       1.37013562       1.35063646       0.00000000
Si       0.00355122       2.69006546      -2.68300925       0.00000000
Si       2.78228316      -0.08439849       2.61864877       0.00000000
Si      -2.74079253       0.01036044       2.66395785       0.00000000
Si       0.01337409      -2.75250504       2.65788941       0.00000000
Si       0.01511712      -2.73232173      -2.68385533       0.00000000
Si       0.02492370       2.73598698       2.68718131       0.00000000
