10
Lattice="16.290000149 0.0 0.0 0.0 16.290000149 0.0 0.0 0.0 29.1751946751" Properties=species:S:1:pos:R:3:initial_magmoms:R:1 pbc="T T T"
Si      -1.30445434      -1.35374788       1.42925194       0.00000000
Si       1.35419097      -1.45709164      -1.29434001       0.00000000
Si       1.39387015       1.29150379       1.42633442       0.00000000
Si      -1.30370500       1.52779024      -1.31678740       0.00000000
Si       2.70326036       0.00526167      -2.51633574       0.00000000
Si      -2.53368146       2.73314763       0.27436645       0.00000000
Si      -2.64756485      -2.68387526       0.03430711       0.00000000
Si       2.80622946       2.68382639       0.17118837       0.00000000
Si      -2.64595214      -0.04667085       2.85093000       0.00000000
Si       0.04841388      -2.73515619       2.78890354       0.00000000
