10
Lattice="16.290000149 0.0 0.0 0.0 16.290000149 0.0 0.0 0.0 29.1751946751" Properties=species:S:1:pos:R:3:initial_magmoms:R:1 pbc="T T T"
Si      -0.22486716       2.13485339       0.91227916       0.00000000
Si      -1.81428248      -0.75391750      -1.38497567       0.00000000
Si       0.34137324      -1.95110219       1.37170095       0.00000000
Si       2.12452553       0.58593502      -1.00210959       0.00000000
H        2.20835387      -0.23856705       1.57012145       0.00000000
H       -1.35190711       2.19304127       1.92077812       0.00000000
H        2.85866697      -0.66222109       1.61330074       0.00000000
Si       1.95180266      -2.73916352      -0.15130256       0.00000000
H       -1.05244804      -1.11249298       3.00072712       0.00000000
H        1.06028353      -1.87089023       2.69648819       0.00000000
