10
Lattice="16.290000149 0.0 0.0 0.0 16.290000149 0.0 0.0 0.0 29.1751946751" Properties=species:S:1:pos:R:3:initial_magmoms:R:1 pbc="T T T"
Si       0.81735076      -0.97316461      -1.94639394       0.00000000
Si      -1.33115365      -1.32699970       1.40081780       0.00000000
Si       1.59477472       1.11527857       1.33998752       0.00000000
Si      -1.50210091       1.31742118      -1.28995206       0.00000000
H        1.26050392       0.31539069      -2.60817488       0.00000000
H        0.69760297       1.87429484       2.30790377       0.00000000
Si      -2.52623693       2.80803765       0.18295765       0.00000000
Si      -1.06116319      -1.68420683      -3.21665274       0.00000000
Si      -2.89507512      -2.44832186      -0.06748223       0.00000000
Si      -2.52648128       0.14960736       2.83086914       0.00000000
