10
Lattice="16.290000149 0.0 0.0 0.0 16.290000149 0.0 0.0 0.0 29.1751946751" Properties=species:S:1:pos:R:3:initial_magmoms:R:1 pbc="T T T"
Si       1.31018842      -1.42759045       1.29712916       0.00000000
Si      -1.35119035      -1.38624643      -1.32283250       0.00000000
Si       1.37582083       1.33033915      -1.35559625       0.00000000
Si      -1.29906235       1.35767377       1.41765188       0.00000000
Si       2.66062943      -0.08462655       2.60945859       0.00000000
Si      -2.66950097       2.70026300       0.06088863       0.00000000
Si       0.00902466       2.68780115      -2.68368028       0.00000000
Si      -2.69013225      -0.02686221      -2.68563502       0.00000000
Si      -2.63075846      -0.04010598       2.75944826       0.00000000
Si       0.03753216      -2.73689922      -2.65651818       0.00000000
