10
Lattice="16.290000149 0.0 0.0 0.0 16.290000149 0.0 0.0 0.0 29.1751946751" Properties=species:S:1:pos:R:3:initial_magmoms:R:1 pbc="T T T"
Si      -1.14767938      -0.12738780       2.05933112       0.00000000
Si      -1.52510239       0.99792541      -1.50532334       0.00000000
Si       1.00085761      -1.76215448      -1.26856664       0.00000000
Si       1.51431841       1.85520296       0.43695689       0.00000000
H       -2.05439708      -2.80028361      -0.90892401       0.00000000
H        0.69888988      -2.96347683       1.91433040       0.00000000
Si       2.30257523      -0.46577997      -2.76367867       0.00000000
Si      -2.55562409       2.62114085      -0.18928866       0.00000000
Si      -0.23371263       2.43650591      -2.78567676       0.00000000
Si       0.42440337       0.63703675       3.64544057       0.00000000
