10
Lattice="16.290000149 0.0 0.0 0.0 16.290000149 0.0 0.0 0.0 29.1751946751" Properties=species:S:1:pos:R:3:initial_magmoms:R:1 pbc="T T T"
Si      -2.23171373       0.50551128      -0.32880444       0.00000000
Si       0.89114446      -1.42267087       1.59025234       0.00000000
Si       0.56123938      -1.03563676      -2.00958741       0.00000000
Si       1.24320394       1.78607308      -0.84470941       0.00000000
H       -0.01295055      -1.49455864       2.81009640       0.00000000
Si       0.60541786       1.10924313      -2.99115766       0.00000000
Si       2.77736358      -0.08068437       1.97518985       0.00000000
Si       3.30102192       1.17366030       0.04367527       0.00000000
Si       1.16781382       1.45178273       3.05580989       0.00000000
Si      -1.06000660      -2.72275949      -2.08080406       0.00000000
