10
Lattice="16.290000149 0.0 0.0 0.0 16.290000149 0.0 0.0 0.0 29.1751946751" Properties=species:S:1:pos:R:3:initial_magmoms:R:1 pbc="T T T"
Si       1.34716672      -1.34772058      -1.36644942       0.00000000
Si      -1.35374788      -1.37482714       1.34272998       0.00000000
Si      -1.35597961       1.32972013      -1.38783484       0.00000000
Si       1.36542781       1.33977106       1.37205106       0.00000000
Si      -2.72702747      -0.01575243       2.66354940       0.00000000
Si      -0.01826109       2.68325624       2.70783734       0.00000000
Si       2.68346801      -2.72298755      -0.01321636       0.00000000
Si      -0.01203831      -2.71251308      -2.69759685       0.00000000
Si      -2.73502587       2.67708233      -0.06675285       0.00000000
Si       2.70972749       2.71178003       0.00930689       0.00000000
