10
Lattice="16.290000149 0.0 0.0 0.0 16.290000149 0.0 0.0 0.0 29.1751946751" Properties=species:S:1:pos:R:3:initial_magmoms:R:1 pbc="T T T"
Si       1.38902876      -1.34944732       1.32974702       0.00000000
Si       1.37601305       1.34793235      -1.35043224       0.00000000
Si      -1.31447303      -1.36630747      -1.39399080       0.00000000
Si      -1.36982937       1.33967332       1.38010341       0.00000000
Si      -2.66242459      -2.72025083      -0.03687745       0.00000000
Si       0.02893430      -2.69961140       2.68353441       0.00000000
Si      -2.70213961       2.70583418       0.00831493       0.00000000
Si       0.02988075       2.70901073      -2.70541580       0.00000000
Si      -2.68334095      -0.01000206      -2.73476605       0.00000000
Si       2.70745993      -2.71207325      -0.06103451       0.00000000
