10
Lattice="16.290000149 0.0 0.0 0.0 16.290000149 0.0 0.0 0.0 29.1751946751" Properties=species:S:1:pos:R:3:initial_magmoms:R:1 pbc="T T T"
Si       1.30171762       1.29637450      -1.49511203       0.00000000
Si       1.26078085      -1.64423117       1.15017370       0.00000000
Si      -1.00085761       1.76215448       1.26856664       0.00000000
Si      -1.29938815      -1.67267351      -1.17456416       0.00000000
H        0.22527441      -2.74924704       1.36650777       0.00000000
H       -3.05525469      -1.03812913       0.35964262       0.00000000
H       -2.48507210      -1.16036929      -1.97320594       0.00000000
H       -0.30196773      -1.20132235       3.18289704       0.00000000
H       -1.85326445       0.49853916      -3.07719531       0.00000000
Si      -2.52596000       2.76007989      -0.23675670       0.00000000
