10
Lattice="16.290000149 0.0 0.0 0.0 16.290000149 0.0 0.0 0.0 29.1751946751" Properties=species:S:1:pos:R:3:initial_magmoms:R:1 pbc="T T T"
Si       0.85095703      -1.87411565      -1.11551357       0.00000000
Si       1.49349979       1.25009461       1.37097157       0.00000000
Si      -1.38342826       1.31707909      -1.43031392       0.00000000
Si      -1.31654152      -1.36021501       1.48355865       0.00000000
H        1.38702835      -1.61583769      -2.50083934       0.00000000
H        2.66642867       0.13719438      -2.07383119       0.00000000
Si      -2.72442107       2.52724610       0.05861297       0.00000000
Si       0.02098152       2.54821996       2.71915732       0.00000000
H       -0.19772802      -0.78289741      -3.68129689       0.00000000
Si       2.54412335      -2.80209180       0.19206031       0.00000000
