10
Lattice="16.290000149 0.0 0.0 0.0 16.290000149 0.0 0.0 0.0 29.1751946751" Properties=species:S:1:pos:R:3:initial_magmoms:R:1 pbc="T T T"
Si      -1.88621912      -1.34198650      -0.38493752       0.00000000
Si       0.52365834       1.25434467      -1.93151459       0.00000000
Si       1.93160306      -1.49418397       0.31710519       0.00000000
H       -0.88930369      -0.98104897       2.07739056       0.00000000
Si      -1.60954975       1.53246710       1.08062004       0.00000000
H       -2.79031413      -1.41387427       0.83490655       0.00000000
Si       0.20017152       2.85866697       1.68513007       0.00000000
Si      -2.77736358       0.08068437      -1.97518985       0.00000000
Si      -0.00856854      -1.83762605       2.96323700       0.00000000
Si       1.55418004      -0.36887076      -3.24754927       0.00000000
