10
Lattice="16.290000149 0.0 0.0 0.0 16.290000149 0.0 0.0 0.0 29.1751946751" Properties=species:S:1:pos:R:3:initial_magmoms:R:1 pbc="T T T"
Si       1.33111456       1.36088290       1.37731426       0.00000000
Si      -1.29624418      -1.31457043       1.46769901       0.00000000
Si      -1.39004200       1.35565381      -1.35818409       0.00000000
Si       1.40252340      -1.34649883      -1.36892931       0.00000000
Si      -0.10267587      -2.73022032      -2.53712569       0.00000000
Si       0.07036270       2.53084700      -2.77478275       0.00000000
Si      -2.68438025      -2.66012444       0.19026311       0.00000000
Si       2.67491576       2.68923467      -0.00585546       0.00000000
Si       2.70071912       0.01185912       2.74002925       0.00000000
Si       2.76001473      -2.68661198       0.01171968       0.00000000
