10
Lattice="16.290000149 0.0 0.0 0.0 16.290000149 0.0 0.0 0.0 29.1751946751" Properties=species:S:1:pos:R:3:initial_magmoms:R:1 pbc="T T T"
Si       1.35946567      -1.35308162       1.35299965       0.00000000
Si      -1.36262593       1.36259172       1.34541410       0.00000000
Si       1.34996860       1.38769461      -1.33572794       0.00000000
Si      -1.34965909      -1.38753497      -1.33648649       0.00000000
Si      -2.78021433      -0.04135542      -2.60140623       0.00000000
Si      -0.00068418      -2.71661979       2.69482521       0.00000000
Si       2.79275763       0.05601968      -2.61861960       0.00000000
Si      -0.00332316       2.70617465       2.70920858       0.00000000
Si      -0.02751381       2.72709101      -2.69529201       0.00000000
Si      -2.72717408       0.01509269       2.69540871       0.00000000
