10
Lattice="16.290000149 0.0 0.0 0.0 16.290000149 0.0 0.0 0.0 29.1751946751" Properties=species:S:1:pos:R:3:initial_magmoms:R:1 pbc="T T T"
H       -0.07011216      -1.04505238      -1.09150238       0.00000000
Si       2.19666091       0.17185950       0.66396908       0.00000000
Si      -1.61694541      -0.68463613       1.56256508       0.00000000
Si      -0.44303913       2.13317552      -0.88491283       0.00000000
H       -1.88415029       2.42014016      -0.44392976       0.00000000
H        1.09423841       0.73985923      -2.99754703       0.00000000
Si      -3.14880816      -1.41260365      -0.04215816       0.00000000
Si       3.00387603      -2.08349102       0.43310576       0.00000000
H       -1.43275438      -3.34579336       0.72010215       0.00000000
Si       3.51541461      -0.09967851      -1.24499308       0.00000000
