10
Lattice="16.290000149 0.0 0.0 0.0 16.290000149 0.0 0.0 0.0 29.1751946751" Properties=species:S:1:pos:R:3:initial_magmoms:R:1 pbc="T T T"
Si       1.49033953      -1.26503254      -1.28464217       0.00000000
Si      -1.34268697       1.41449329      -1.37170095       0.00000000
Si      -1.39051441      -1.82527823       0.75085281       0.00000000
Si       1.07077429       1.69376906       1.38089114       0.00000000
H        2.96690424       0.07418466       1.62911370       0.00000000
Si      -2.46993869       2.52977186       0.38032784       0.00000000
Si       0.06331923      -2.53641818      -2.68896099       0.00000000
Si      -0.60800797       3.37201374       1.63171029       0.00000000
Si       2.77818036      -2.61202007       0.21715097       0.00000000
Si      -3.14994846      -0.85488292       2.00990834       0.00000000
