10
Lattice="16.290000149 0.0 0.0 0.0 16.290000149 0.0 0.0 0.0 29.1751946751" Properties=species:S:1:pos:R:3:initial_magmoms:R:1 pbc="T T T"
Si      -1.26505209       1.41841918       1.33216448       0.00000000
Si       1.63126107      -1.18568395       1.21481251       0.00000000
Si       0.67642271       1.75488914      -1.51153766       0.00000000
Si      -1.35003702      -1.96432967      -0.47441784       0.00000000
Si       0.29922124      -2.59352115       2.57369563       0.00000000
Si       0.15767091       0.83719198      -3.59884779       0.00000000
Si      -2.58659464       0.08850357       2.69480187       0.00000000
Si       0.24014718       2.80214067       2.50036086       0.00000000
Si      -2.40880558       2.91328734      -0.05584132       0.00000000
Si      -0.43301915      -2.86216932      -2.45223346       0.00000000
