10
Lattice="16.290000149 0.0 0.0 0.0 16.290000149 0.0 0.0 0.0 29.1751946751" Properties=species:S:1:pos:R:3:initial_magmoms:R:1 pbc="T T T"
Si      -2.19666091      -0.17185950      -0.66396908       0.00000000
Si       1.31875370      -0.27153801      -1.90896216       0.00000000
Si       0.51875180       0.91769716       2.08731013       0.00000000
Si       0.80721512      -2.25535052      -0.23086332       0.00000000
Si       0.77817005       2.11675520      -1.18118693       0.00000000
H       -2.26677307      -1.21691188      -1.75547146       0.00000000
H        2.05309062      -2.26699787       0.63771141       0.00000000
H        1.97414928       2.48354084      -0.29055576       0.00000000
H        3.36712348       0.44434233       0.17274633       0.00000000
Si      -2.63970004       1.96131602      -1.54888191       0.00000000
