10
Lattice="16.290000149 0.0 0.0 0.0 16.290000149 0.0 0.0 0.0 29.1751946751" Properties=species:S:1:pos:R:3:initial_magmoms:R:1 pbc="T T T"
Si       1.44111115      -0.28696464      -0.44098307       0.00000000
Si      -1.98928595       0.07851780       1.05978895       0.00000000
Si      -1.22813569       1.95030398      -0.22158560       0.00000000
Si       0.65037826       2.66134619       1.04867320       0.00000000
Si       1.08225874      -0.06069654      -2.80183982       0.00000000
Si      -0.59652352       1.61754814      -2.55102067       0.00000000
Si       1.88415029      -2.42014016       0.44392976       0.00000000
Si      -0.96335803      -1.25727850       2.67559875       0.00000000
Si       2.65983122       1.29401245       0.97290522       0.00000000
H        1.62077356       2.40197681      -1.42949701       0.00000000
