10
Lattice="16.290000149 0.0 0.0 0.0 16.290000149 0.0 0.0 0.0 29.1751946751" Properties=species:S:1:pos:R:3:initial_magmoms:R:1 pbc="T T T"
Si      -1.30676752      -1.31397422      -1.44644780       0.00000000
Si      -1.32352993       1.39420573       1.36507818       0.00000000
Si       1.26110665      -1.39172639       1.43089742       0.00000000
Si       1.36684504       1.35913336      -1.37695249       0.00000000
Si      -2.66173715      -2.66887869      -0.11214945       0.00000000
Si       2.66084120       0.02511266       2.68904852       0.00000000
Si       2.69110802      -2.67378198       0.01873047       0.00000000
Si      -2.67074552       2.72775401      -0.04247908       0.00000000
Si       0.07626978       2.76497666       2.67904143       0.00000000
Si      -2.68082903       0.03248552      -2.78328440       0.00000000
