10
Lattice="16.290000149 0.0 0.0 0.0 16.290000149 0.0 0.0 0.0 29.1751946751" Properties=species:S:1:pos:R:3:initial_magmoms:R:1 pbc="T T T"
Si       1.38704464       1.26952858       1.38105627       0.00000000
Si      -1.63126107       1.18568395      -1.21481251       0.00000000
Si       1.28774080      -1.32833548      -1.46598176       0.00000000
Si      -1.33203983      -1.40783720       1.35888312       0.00000000
Si      -2.98129809      -0.77864572      -1.68923035       0.00000000
Si      -2.70705463      -2.60309315      -0.11665818       0.00000000
Si      -0.03362256       2.64771146       2.66619734       0.00000000
Si       2.61519662      -2.74151776      -0.07887631       0.00000000
Si       2.58646106      -0.13313817       2.82052828       0.00000000
Si       3.26142093       2.06760827       0.18278668       0.00000000
