10
Lattice="16.290000149 0.0 0.0 0.0 16.290000149 0.0 0.0 0.0 29.1751946751" Properties=species:S:1:pos:R:3:initial_magmoms:R:1 pbc="T T T"
Si       1.42008076       1.30999294       1.31390489       0.00000000
Si       1.37904625      -1.34736220      -1.32108199       0.00000000
Si      -1.34882830      -1.35811360       1.35314553       0.00000000
Si      -1.36220239       1.39439143      -1.30474388       0.00000000
Si       0.05774805       2.67972131       2.57608216       0.00000000
Si       0.00861741      -2.70842429      -2.64919520       0.00000000
Si       2.73083933       0.04398300      -2.64829077       0.00000000
Si      -2.71640639       0.04127886      -2.66611682       0.00000000
Si       0.01216863       2.73702953      -2.64697789       0.00000000
Si       2.73502587      -2.67708233       0.06675285       0.00000000
