10
Lattice="16.290000149 0.0 0.0 0.0 16.290000149 0.0 0.0 0.0 29.1751946751" Properties=species:S:1:pos:R:3:initial_magmoms:R:1 pbc="T T T"
Si       1.34772058       1.36231642       1.35002378       0.00000000
Si      -1.34248823       1.35993808      -1.36186891       0.00000000
Si       1.35913987      -1.35462754      -1.35460429       0.00000000
Si      -1.36823295      -1.36472734       1.34407204       0.00000000
Si      -0.03407868      -2.69752628      -2.68298008       0.00000000
Si       2.69078222      -0.02103039       2.69339562       0.00000000
Si      -2.67974184      -0.01550808      -2.70500735       0.00000000
Si      -0.04100193       2.71296920       2.68370946       0.00000000
Si       2.69579954       2.70997184      -0.02876674       0.00000000
Si       2.68889258      -2.72486090       0.01750512       0.00000000
