10
Lattice="16.290000149 0.0 0.0 0.0 16.290000149 0.0 0.0 0.0 29.1751946751" Properties=species:S:1:pos:R:3:initial_magmoms:R:1 pbc="T T T"
Si      -0.47809521       2.02950596      -1.05824266       0.00000000
Si       1.59267331       0.81228457       1.56241920       0.00000000
Si       1.29697723      -1.50205204      -1.32108199       0.00000000
Si      -1.86849560      -0.89301781       1.27726085       0.00000000
H       -2.79606450      -0.74269369      -1.26302335       0.00000000
H        1.03690738       1.17994987      -2.76362032       0.00000000
H       -1.07582419       1.93834712      -2.45938139       0.00000000
Si      -2.19292724       2.47259396       0.46645301       0.00000000
Si       2.22695705      -2.54409077       0.51257900       0.00000000
Si       3.29703087      -0.78336982       1.57578144       0.00000000
