10
Lattice="16.290000149 0.0 0.0 0.0 16.290000149 0.0 0.0 0.0 29.1751946751" Properties=species:S:1:pos:R:3:initial_magmoms:R:1 pbc="T T T"
Si       0.28387280      -0.81811639      -2.15657204       0.00000000
Si      -2.27080647       0.49603050      -0.11643820       0.00000000
Si       1.29587277       1.98226007       0.10861925       0.00000000
Si       1.04499048      -1.53956791       1.47740268       0.00000000
Si      -2.59012306       1.23508501       2.08456766       0.00000000
Si       3.36515891       1.26605881       0.95385381       0.00000000
Si       2.58542176      -0.22636584       2.66725465       0.00000000
Si       1.20567504       0.91184905      -3.43870515       0.00000000
Si       1.93712863      -2.47111157      -2.06388245       0.00000000
Si       2.40870784      -2.89136100       0.14745143       0.00000000
