10
Lattice="16.290000149 0.0 0.0 0.0 16.290000149 0.0 0.0 0.0 29.1751946751" Properties=species:S:1:pos:R:3:initial_magmoms:R:1 pbc="T T T"
Si      -1.48787160       1.07536807       1.42444970       0.00000000
Si      -1.42378674      -1.43661511      -1.16467377       0.00000000
Si       1.56474411      -1.07587306       1.36487396       0.00000000
Si       1.31125542       1.49154499      -1.26649520       0.00000000
H       -2.52337804      -0.02964780       1.64078377       0.00000000
Si       1.99849794       0.73648720       2.84808250       0.00000000
Si      -0.31203007       0.90160264       3.43447474       0.00000000
Si       0.01225334      -2.68149692      -2.53229020       0.00000000
Si      -2.71478554      -0.02181231      -2.52196218       0.00000000
Si       2.81539258       0.15653061      -2.51449333       0.00000000
