10
Lattice="16.290000149 0.0 0.0 0.0 16.290000149 0.0 0.0 0.0 29.1751946751" Properties=species:S:1:pos:R:3:initial_magmoms:R:1 pbc="T T T"
Si      -1.36572103      -1.35035956       1.35171303       0.00000000
Si       1.30535029       1.29494098       1.47547420       0.00000000
Si      -1.37160172       1.41227785      -1.30518151       0.00000000
Si       1.36523233      -1.34736220      -1.38927901       0.00000000
Si       2.66279600       2.63459801       0.16074365       0.00000000
Si       2.71388144      -2.71067231      -0.01290711       0.00000000
Si      -2.70888041      -2.71855667      -0.01279624       0.00000000
Si      -0.01350441      -2.66924684       2.75944535       0.00000000
Si      -2.72829809       0.02363679       2.70124083       0.00000000
Si      -2.78721903       0.12072519      -2.65057869       0.00000000
