10
Lattice="16.290000149 0.0 0.0 0.0 16.290000149 0.0 0.0 0.0 29.1751946751" Properties=species:S:1:pos:R:3:initial_magmoms:R:1 pbc="T T T"
Si       2.27080647      -0.49603050       0.11643820       0.00000000
Si      -0.31931658       0.73905450       2.20100586       0.00000000
Si      -0.55933345       1.72991819      -1.53041401       0.00000000
Si      -1.51431841      -1.85520296      -0.43695689       0.00000000
H       -1.45756405       1.75548535       2.25451317       0.00000000
Si       2.55467927      -1.31414689      -2.04013384       0.00000000
Si      -1.08991504      -1.21816621       3.20848368       0.00000000
Si      -2.66199779      -1.98259076       1.62237423       0.00000000
Si      -2.55129095       2.61594596      -0.55211138       0.00000000
Si      -3.03942081      -0.85727755      -1.94228024       0.00000000
