10
Lattice="16.290000149 0.0 0.0 0.0 16.290000149 0.0 0.0 0.0 29.1751946751" Properties=species:S:1:pos:R:3:initial_magmoms:R:1 pbc="T T T"
Si      -1.56474411       1.07587306      -1.36487396       0.00000000
Si       1.38341197      -1.47996280      -1.21260862       0.00000000
Si      -0.84991447      -1.48727701       1.63211874       0.00000000
Si       0.43375383       1.81236026       1.48320855       0.00000000
H        0.34606476      -1.12049137       2.52274991       0.00000000
Si      -1.87677418       1.97747570       2.06960078       0.00000000
Si      -0.25348869       2.56741805      -2.63136916       0.00000000
Si      -3.05261571       2.15124113       0.05957575       0.00000000
Si       2.69744483      -0.12007359      -2.59600882       0.00000000
Si      -0.12116502      -2.82005967      -2.51364725       0.00000000
