10
Lattice="16.290000149 0.0 0.0 0.0 16.290000149 0.0 0.0 0.0 29.1751946751" Properties=species:S:1:pos:R:3:initial_magmoms:R:1 pbc="T T T"
Si      -1.49033953       1.26503254       1.28464217       0.00000000
Si       1.29538146       1.35799957      -1.44618522       0.00000000
Si      -1.42702030      -1.27138564      -1.40431882       0.00000000
Si       1.28784082      -1.34698753       1.50179315       0.00000000
H        1.47656471       1.33921720       2.91375587       0.00000000
Si      -2.88085395      -0.56024569       2.03549498       0.00000000
Si      -2.77478976      -2.29195415       0.22890858       0.00000000
Si       2.50587932      -2.63333391      -0.10409709       0.00000000
Si       2.60459835       0.35763066       2.63664987       0.00000000
Si       2.65458096       2.76962583      -0.13519785       0.00000000
