10
Lattice="16.290000149 0.0 0.0 0.0 16.290000149 0.0 0.0 0.0 29.1751946751" Properties=species:S:1:pos:R:3:initial_magmoms:R:1 pbc="T T T"
Si      -0.96876631       1.45805275       1.51057488       0.00000000
Si       1.56644641      -1.28277235       1.12257397       0.00000000
Si       1.61971471       1.02762208      -1.39323225       0.00000000
Si      -1.89560216      -1.50069997      -0.31958508       0.00000000
H       -0.38059956      -2.35025606      -2.02496274       0.00000000
H        0.76747078      -0.71793289      -3.15132948       0.00000000
H       -2.49333113      -1.59185881      -1.72072381       0.00000000
Si       0.17516637      -2.71792136       2.30107678       0.00000000
Si      -2.66193263       2.38602890       0.20300100       0.00000000
H       -2.12586131       2.64430685      -1.18232476       0.00000000
