10
Lattice="16.290000149 0.0 0.0 0.0 16.290000149 0.0 0.0 0.0 29.1751946751" Properties=species:S:1:pos:R:3:initial_magmoms:R:1 pbc="T T T"
Si       1.34415307      -1.33125139      -1.38623020       0.00000000
Si      -1.36404316       1.33911946      -1.36353190       0.00000000
Si      -1.35179308      -1.39134520       1.32720878       0.00000000
Si       1.37093383       1.34838847       1.35518779       0.00000000
Si      -2.73083933      -0.04398300       2.64829077       0.00000000
Si       2.68956047      -2.71098182      -0.03130498       0.00000000
Si      -2.69910641      -0.06349842      -2.70439467       0.00000000
Si      -2.71867070       2.69304653       0.00131288       0.00000000
Si      -0.00964368       2.71060715      -2.70847920       0.00000000
Si       0.02686221       2.71357193       2.70602848       0.00000000
