10
Lattice="16.290000149 0.0 0.0 0.0 16.290000149 0.0 0.0 0.0 29.1751946751" Properties=species:S:1:pos:R:3:initial_magmoms:R:1 pbc="T T T"
Si      -1.43431822       1.32196609       1.28201640       0.00000000
Si      -1.37714032      -1.33996654      -1.33263537       0.00000000
Si       1.34882830       1.35811360      -1.35314553       0.00000000
Si       1.35682669      -1.33472116       1.37715671       0.00000000
Si      -0.00847080       2.71142165       2.46191963       0.00000000
Si       0.00144981      -2.70599708      -2.64443965       0.00000000
Si       2.72787455       0.01075140      -2.67422752       0.00000000
Si      -2.72774423       0.03689685      -2.67489855       0.00000000
Si      -0.01337409       2.75250504      -2.65788941       0.00000000
Si       0.01570356      -2.66743865       2.75022890       0.00000000
