10
Lattice="16.290000149 0.0 0.0 0.0 16.290000149 0.0 0.0 0.0 29.1751946751" Properties=species:S:1:pos:R:3:initial_magmoms:R:1 pbc="T T T"
Si      -0.65101357       0.42365403      -2.13281468       0.00000000
Si      -1.90666307      -0.79156369       1.12237557       0.00000000
Si       0.85801060       1.93481219       1.04186662       0.00000000
Si       1.70562818      -1.66638557      -0.12411857       0.00000000
H       -1.20485728      -2.61819398      -0.80420549       0.00000000
Si       2.17434035       0.67131091       2.51403528       0.00000000
Si      -0.65651959      -2.16257897       2.53498599       0.00000000
Si       3.43450218      -0.72870058       1.14928386       0.00000000
Si       0.84225817      -3.39849314       1.25604465       0.00000000
Si      -2.35537112       2.01930842      -2.14617692       0.00000000
