10
Lattice="16.290000149 0.0 0.0 0.0 16.290000149 0.0 0.0 0.0 29.1751946751" Properties=species:S:1:pos:R:3:initial_magmoms:R:1 pbc="T T T"
Si       1.34112313       1.33271749      -1.37307219       0.00000000
Si      -1.43826040       1.37085238       1.23230187       0.00000000
Si       1.34166070      -1.34692237       1.38348773       0.00000000
Si      -1.38303730      -1.35016408      -1.34045432       0.00000000
Si      -0.15899040      -2.70826139       2.54594419       0.00000000
Si       2.70036074       2.64077192       0.01671739       0.00000000
Si      -0.01316232      -2.73743679      -2.65126664       0.00000000
Si      -2.81370657       0.05111802       2.58874420       0.00000000
Si       2.71440272      -0.02635722      -2.69389160       0.00000000
Si      -0.01570356       2.66743865      -2.75022890       0.00000000
