10
Lattice="16.290000149 0.0 0.0 0.0 16.290000149 0.0 0.0 0.0 29.1751946751" Properties=species:S:1:pos:R:3:initial_magmoms:R:1 pbc="T T T"
Si      -1.37859013       1.36603054       1.31180428       0.00000000
Si      -1.37832949      -1.33535647      -1.34462637       0.00000000
Si       1.35599590       1.35568639      -1.35790109       0.00000000
Si       1.35457867      -1.35153244       1.36907519       0.00000000
Si      -0.00144981       2.70599708       2.64443965       0.00000000
Si      -0.00726534      -2.68110596      -2.68327183       0.00000000
Si      -2.73202850       0.01444923       2.67376072       0.00000000
Si       2.71485884      -2.70306488       0.01639646       0.00000000
Si       0.00029322       2.72618039      -2.69730510       0.00000000
Si      -2.72818406      -2.70010010       0.01199101       0.00000000
