10
Lattice="16.290000149 0.0 0.0 0.0 16.290000149 0.0 0.0 0.0 29.1751946751" Properties=species:S:1:pos:R:3:initial_magmoms:R:1 pbc="T T T"
Si       1.38528532      -1.31468446      -1.35816366       0.00000000
Si       1.37042884       1.36106209       1.32811321       0.00000000
Si      -1.35570268       1.37049400      -1.33940401       0.00000000
Si      -1.35599590      -1.35568639       1.35790109       0.00000000
Si       0.00728163      -2.67874391      -2.66366610       0.00000000
Si      -0.00861741       2.70842429       2.64919520       0.00000000
Si       0.02311551       2.68890887      -2.70349024       0.00000000
Si       2.71437014      -2.68117112       0.01835120       0.00000000
Si      -2.73458604       0.01034415       2.66970536       0.00000000
Si      -2.73432540      -2.69104286       0.01327471       0.00000000
