10
Lattice="16.290000149 0.0 0.0 0.0 16.290000149 0.0 0.0 0.0 29.1751946751" Properties=species:S:1:pos:R:3:initial_magmoms:R:1 pbc="T T T"
Si       2.30099510       0.06292827      -0.45075676       0.00000000
Si      -0.86034007       2.07738227      -0.78950994       0.00000000
Si      -0.13424589       0.42850845       2.35551769       0.00000000
Si      -0.92515798      -2.07927191      -0.81349195       0.00000000
H       -2.33618150       0.15684012       0.95230753       0.00000000
H       -1.02214864       2.86818033       0.48734245       0.00000000
Si      -3.58205700       0.16848747       0.08373281       0.00000000
Si      -2.99444412      -1.36307065      -1.65872652       0.00000000
Si       3.07089309       2.10882197       0.42928381       0.00000000
Si       2.06334029       0.04033404       3.16512934       0.00000000
