10
Lattice="16.290000149 0.0 0.0 0.0 16.290000149 0.0 0.0 0.0 29.1751946751" Properties=species:S:1:pos:R:3:initial_magmoms:R:1 pbc="T T T"
Si       1.32154255       1.32991561      -1.36263739       0.00000000
Si      -1.26016183       1.40001148       1.36475142       0.00000000
Si      -1.72887401      -0.93768499      -1.27340243       0.00000000
Si       1.45074473      -1.38056122       1.23152873       0.00000000
Si      -3.43450218       0.72870058      -1.14928386       0.00000000
Si      -2.57649158       2.66351276      -0.10741723       0.00000000
Si      -2.59224401      -2.66979256       0.10676079       0.00000000
Si       2.58659464      -0.08850357      -2.69480187       0.00000000
Si      -2.67180437      -0.00436572       2.62217314       0.00000000
Si       2.80962103       0.01544292       2.55081061       0.00000000
