10
Lattice="16.290000149 0.0 0.0 0.0 16.290000149 0.0 0.0 0.0 29.1751946751" Properties=species:S:1:pos:R:3:initial_magmoms:R:1 pbc="T T T"
Si      -1.37327959       1.35907471       1.32081941       0.00000000
Si      -1.37407780      -1.36373365      -1.33170176       0.00000000
Si       1.35374788       1.37482714      -1.34272998       0.00000000
Si       1.35951454      -1.32532183       1.39148173       0.00000000
Si      -0.01404198       2.66712914       2.71060899       0.00000000
Si       2.68319108      -2.69597873       0.01782604       0.00000000
Si      -0.01379763      -2.71526609      -2.68438049       0.00000000
Si      -2.71440272       0.02635722       2.69389160       0.00000000
Si       2.70091460       0.02710656      -2.70917940       0.00000000
Si      -2.73010628       2.69379587      -0.05633730       0.00000000
