10
Lattice="16.290000149 0.0 0.0 0.0 16.290000149 0.0 0.0 0.0 29.1751946751" Properties=species:S:1:pos:R:3:initial_magmoms:R:1 pbc="T T T"
Si       0.52357527      -0.67865770       2.23026858       0.00000000
Si       1.17229031       2.03921480      -0.60871126       0.00000000
Si      -2.00945297       1.36733374       0.07576798       0.00000000
Si      -1.21872007      -1.58097709      -1.41388828       0.00000000
Si       2.19915002      -1.42553791      -1.04619331       0.00000000
H       -1.03905766       1.10796436      -2.40240223       0.00000000
H       -2.65983122      -1.29401245      -0.97290522       0.00000000
H       -1.56629980       2.65588904      -0.58601296       0.00000000
Si      -0.00355122       2.21298023      -2.61873630       0.00000000
H        3.39512925      -1.05875227      -0.15556214       0.00000000
