10
Lattice="16.290000149 0.0 0.0 0.0 16.290000149 0.0 0.0 0.0 29.1751946751" Properties=species:S:1:pos:R:3:initial_magmoms:R:1 pbc="T T T"
H        0.65031310      -0.42365403       0.04317929       0.00000000
H       -1.14807034      -1.63232317       1.12636674       0.00000000
Si      -1.86698063      -1.71253514      -0.19842050       0.00000000
Si       0.85224394       1.74555497       1.75809723       0.00000000
Si      -0.08382834       0.82450207      -2.57223104       0.00000000
Si      -2.20835387       0.23856705      -1.57012145       0.00000000
Si       2.63288756       0.19927557       1.12473293       0.00000000
Si       1.40256901      -0.97572214      -2.45608459       0.00000000
Si      -0.25655121      -2.50059647      -1.72142401       0.00000000
Si      -0.37080927       3.06791202       0.24212494       0.00000000
