10
Lattice="16.290000149 0.0 0.0 0.0 16.290000149 0.0 0.0 0.0 29.1751946751" Properties=species:S:1:pos:R:3:initial_magmoms:R:1 pbc="T T T"
Si       0.44582472       2.21307797      -0.60439333       0.00000000
Si       1.06297138       0.08739585       2.10805369       0.00000000
Si      -0.43375383      -1.81236026      -1.48320855       0.00000000
Si      -2.31052801       0.16511544       0.58639224       0.00000000
H        2.72606636       1.01452492      -0.77346359       0.00000000
H       -0.08768907      -2.93285163       1.03954136       0.00000000
H        1.80823889       2.77809663      -0.33557309       0.00000000
Si      -2.08213080       2.01025118       2.02388325       0.00000000
Si      -1.28366830      -3.29963727       0.14891019       0.00000000
Si      -1.99849794      -0.73648720      -2.84808250       0.00000000
