10
Lattice="16.290000149 0.0 0.0 0.0 16.290000149 0.0 0.0 0.0 29.1751946751" Properties=species:S:1:pos:R:3:initial_magmoms:R:1 pbc="T T T"
Si       1.35119035       1.38624643       1.32283250       0.00000000
Si      -1.33894190       1.35938422      -1.36280252       0.00000000
Si       1.38872251      -1.35065278      -1.33368567       0.00000000
Si      -1.35061043      -1.36555813       1.36391118       0.00000000
Si       2.66137877      -0.04134402       2.61996166       0.00000000
Si      -2.66668931       2.70819623       0.03247199       0.00000000
Si       0.04100193      -2.71296920      -2.68370946       0.00000000
Si      -2.69104286       0.00649971      -2.72318350       0.00000000
Si      -2.69294879      -2.72657135       0.00994874       0.00000000
Si       0.01984122       2.71107956      -2.72545916       0.00000000
