10
Lattice="16.290000149 0.0 0.0 0.0 16.290000149 0.0 0.0 0.0 29.1751946751" Properties=species:S:1:pos:R:3:initial_magmoms:R:1 pbc="T T T"
Si       1.37009978       1.36920709       1.32472889       0.00000000
Si       1.37996664      -1.34796493      -1.34086277       0.00000000
Si      -1.32564763       1.38336310      -1.35956407       0.00000000
Si      -1.35205372      -1.35114148       1.37286796       0.00000000
Si      -2.68384268      -2.70602966      -0.01032802       0.00000000
Si      -2.69333975       0.03474657      -2.69905561       0.00000000
Si       0.00438201       2.72033228       2.67431504       0.00000000
Si       2.69861771       0.00847080       2.69853046       0.00000000
Si       2.70425405       0.03640815      -2.70232323       0.00000000
Si      -2.69112431       2.73080676      -0.01006544       0.00000000
