10
Lattice="16.28999089631971 0.0 0.0 0.0 16.28999089631971 0.0 0.0 0.0 34.51877397758722" Properties=species:S:1:pos:R:3:initial_magmoms:R:1 pbc="T T T"
Si      -1.50783498      -1.31372334      -1.31258544       0.00000000
Si       1.52875134       1.20573693      -1.41662508       0.00000000
Si      -1.32626664       1.37196009       1.53075660       0.00000000
Si       1.38253230      -1.32439329       1.53576528       0.00000000
Si      -0.09627390      -2.62653281      -2.79023142       0.00000000
Si      -2.74610141       2.67840180       0.11805427       0.00000000
Si      -2.72416856      -2.71621903       0.14656680       0.00000000
Si       2.87029800      -2.56757441       0.19155169       0.00000000
Si       2.76071517       2.71668330      -0.01408367       0.00000000
Si      -2.68165980       0.01874979       2.91422151       0.00000000
