10
Lattice="16.28999089631971 0.0 0.0 0.0 16.28999089631971 0.0 0.0 0.0 34.51877397758722" Properties=species:S:1:pos:R:3:initial_magmoms:R:1 pbc="T T T"
Si       0.13918176      -1.86978249      -1.46525374       0.00000000
Si      -0.22558392      -0.65585169       2.29173720       0.00000000
Si       2.23891389       0.93698451      -0.04691104       0.00000000
Si      -2.19727013       1.01240721      -0.52620448       0.00000000
Si      -2.43160830      -1.49903838       2.49971293       0.00000000
Si      -1.64190331      -3.36782718      -0.85706712       0.00000000
Si      -0.26060742       1.34381097       3.63579546       0.00000000
Si       2.83053411       1.63606986       2.11403446       0.00000000
Si       1.52873505      -2.15915805       2.89968219       0.00000000
Si      -2.68529719       2.77314185       0.97294671       0.00000000
