10
Lattice="16.28999089631971 0.0 0.0 0.0 16.28999089631971 0.0 0.0 0.0 34.51877397758722" Properties=species:S:1:pos:R:3:initial_magmoms:R:1 pbc="T T T"
Si      -2.14736083       0.77222745      -0.43345249       0.00000000
Si      -0.02557530      -0.09969480       2.33088152       0.00000000
Si       1.62859275       1.66247499      -0.30128003       0.00000000
Si       0.03502350      -1.99966266      -1.34405825       0.00000000
Si       3.09114153       0.29225889      -1.52176100       0.00000000
Si      -3.45798323      -1.16460468      -0.01574057       0.00000000
Si      -2.34336374       2.65811165       0.95354715       0.00000000
Si      -1.26620704      -2.02680180       2.88407970       0.00000000
Si      -2.17100088      -2.84284935      -1.13608252       0.00000000
Si      -1.39045413       1.94909103       2.99844046       0.00000000
