10
Lattice="16.28999089631971 0.0 0.0 0.0 16.28999089631971 0.0 0.0 0.0 34.51877397758722" Properties=species:S:1:pos:R:3:initial_magmoms:R:1 pbc="T T T"
Si       1.35500220      -1.35812833      -1.35603627       0.00000000
Si      -1.35839052      -1.35610837       1.35651954       0.00000000
Si       1.35637056       1.35860614       1.35672665       0.00000000
Si      -1.35887922       1.35657803      -1.36100698       0.00000000
Si       2.71485882      -2.71109428      -0.00117364       0.00000000
Si       2.71383255       0.00147693       2.71338426       0.00000000
Si      -0.00123804      -2.71340746       2.71383301       0.00000000
Si       2.71318095       2.71507932      -0.00217468       0.00000000
Si      -2.71518462       0.00045983       2.71386753       0.00000000
Si      -2.71621089      -2.71295134      -0.00100105       0.00000000
