10
Lattice="16.28999089631971 0.0 0.0 0.0 16.28999089631971 0.0 0.0 0.0 34.51877397758722" Properties=species:S:1:pos:R:3:initial_magmoms:R:1 pbc="T T T"
Si      -1.73128491      -0.84453876      -1.38682704       0.00000000
Si       0.94200183       1.87639623      -1.21696006       0.00000000
Si      -0.91372239      -0.31149738       2.32356353       0.00000000
Si       1.94334813      -1.67273865      -0.06127086       0.00000000
Si      -1.53287271      -2.63060531       1.56591054       0.00000000
Si      -0.39014550      -2.11794924      -2.85511843       0.00000000
Si       2.33867385       0.60981615      -2.81248772       0.00000000
Si       1.02418488      -3.32311569      -1.49984157       0.00000000
Si      -3.34809999      -1.91359445       0.08063590       0.00000000
Si       3.64535991      -0.79376283      -1.41192220       0.00000000
