10
Lattice="16.28999089631971 0.0 0.0 0.0 16.28999089631971 0.0 0.0 0.0 34.51877397758722" Properties=species:S:1:pos:R:3:initial_magmoms:R:1 pbc="T T T"
Si       1.34113941      -1.27341048      -1.46829139       0.00000000
Si       1.73128491       0.84453876       1.38682704       0.00000000
Si      -1.61681508      -1.06905568       1.46746294       0.00000000
Si      -1.35928647       1.43576802      -1.42969938       0.00000000
Si       0.19841220      -1.78606655       2.95273758       0.00000000
Si       2.75546979      -2.47857693      -0.11301453       0.00000000
Si      -2.66489739      -2.61161720       0.01349685       0.00000000
Si       2.67328674       2.72093499       0.16986698       0.00000000
Si       0.81756252       0.53304138       3.71039057       0.00000000
Si      -0.00518022      -2.63079332      -2.81597412       0.00000000
