10
Lattice="16.28999089631971 0.0 0.0 0.0 16.28999089631971 0.0 0.0 0.0 34.51877397758722" Properties=species:S:1:pos:R:3:initial_magmoms:R:1 pbc="T T T"
Si      -1.35527913       1.35630540      -1.36311263       0.00000000
Si       1.37614662       1.33002963       1.37084484       0.00000000
Si       1.35954711      -1.36070370      -1.36231870       0.00000000
Si      -1.35250983      -1.36612827       1.37861157       0.00000000
Si       0.05512536       2.72207529       2.69229328       0.00000000
Si      -2.71531494       2.71174743      -0.00020711       0.00000000
Si      -2.70962973      -2.71746522       0.00010356       0.00000000
Si       2.71363707      -2.71419093      -0.00120816       0.00000000
Si       2.71842633       2.71200807      -0.00286506       0.00000000
Si       0.00218286       2.71221984      -2.71959765       0.00000000
