10
Lattice="16.28999089631971 0.0 0.0 0.0 16.28999089631971 0.0 0.0 0.0 34.51877397758722" Properties=species:S:1:pos:R:3:initial_magmoms:R:1 pbc="T T T"
Si      -2.00179665      -0.99434160       0.58675045       0.00000000
Si      -0.52259949       0.94843638      -2.12490788       0.00000000
Si       2.17388421      -0.84929544       0.64418972       0.00000000
Si       0.27188010       1.93894983       1.55479549       0.00000000
Si       1.73154555       1.22302062      -2.68873785       0.00000000
Si       3.30959043       0.28953846      -1.10988276       0.00000000
Si       1.61538156      -1.01568150       2.98649696       0.00000000
Si      -1.87545141      -3.14105409      -0.19371947       0.00000000
Si      -1.72496439       3.27624480       0.59738224       0.00000000
Si      -1.49991804       3.08218203      -1.74495952       0.00000000
