10
Lattice="16.28999089631971 0.0 0.0 0.0 16.28999089631971 0.0 0.0 0.0 34.51877397758722" Properties=species:S:1:pos:R:3:initial_magmoms:R:1 pbc="T T T"
Si       0.27732894      -0.65710343       2.22939626       0.00000000
Si       0.48802706      -1.76073464      -1.49915119       0.00000000
Si       1.64480602       1.62922154      -0.54156535       0.00000000
Si      -2.24885325       0.77051048      -0.15191721       0.00000000
Si       0.10191659      -0.87568265      -3.65036239       0.00000000
Si       0.44317255       3.70328063      -0.74926493       0.00000000
Si       0.08132603       1.22878076       3.61639590       0.00000000
Si      -1.03329345      -2.59393556       2.64710818       0.00000000
Si      -3.32661594       0.33431315       1.94910366       0.00000000
Si       2.42468977      -1.42933088       2.66284875       0.00000000
