10
Lattice="16.28999089631971 0.0 0.0 0.0 16.28999089631971 0.0 0.0 0.0 34.51877397758722" Properties=species:S:1:pos:R:3:initial_magmoms:R:1 pbc="T T T"
Si       1.32102126      -1.39204566      -1.32144844       0.00000000
Si       0.97023240       1.68995718       1.28392652       0.00000000
Si      -1.40714649       1.35285192      -1.32593589       0.00000000
Si      -1.68544485      -1.18920258       1.18178541       0.00000000
Si      -1.02667725       1.47742155       2.86902950       0.00000000
Si       2.46801645       0.59020299       2.76364363       0.00000000
Si       2.66330097      -0.01006722      -2.69515834       0.00000000
Si       0.46473741      -0.22082724       3.76534449       0.00000000
Si      -0.05600502       2.70676269      -2.69505478       0.00000000
Si      -0.05512536      -2.72207529      -2.69229328       0.00000000
