10
Lattice="16.28999089631971 0.0 0.0 0.0 16.28999089631971 0.0 0.0 0.0 34.51877397758722" Properties=species:S:1:pos:R:3:initial_magmoms:R:1 pbc="T T T"
Si       1.70279370       1.00058067      -1.49382291       0.00000000
Si      -1.37738466       1.29155265       1.60778874       0.00000000
Si      -1.97117145      -0.78152904      -1.33973102       0.00000000
Si       1.31991354      -1.43876538       1.59198258       0.00000000
Si       2.58520671       2.54361834       0.12253136       0.00000000
Si      -2.58919776       2.80367190       0.16750244       0.00000000
Si      -1.23269688       0.31102497      -3.65104038       0.00000000
Si      -2.83504644      -2.68600923       0.14638730       0.00000000
Si      -3.57135444       1.14331365      -1.20372697       0.00000000
Si      -0.04061097       2.63182869       2.99632791       0.00000000
