10
Lattice="16.28999089631971 0.0 0.0 0.0 16.28999089631971 0.0 0.0 0.0 34.51877397758722" Properties=species:S:1:pos:R:3:initial_magmoms:R:1 pbc="T T T"
Si       1.35503478      -1.35576783       1.35907393       0.00000000
Si      -1.35955880       1.35905841       1.35848711       0.00000000
Si      -1.36209554      -1.35703845      -1.36145573       0.00000000
Si       1.35539316       1.35321030      -1.38346491       0.00000000
Si       2.71155195      -2.71549087      -0.00103556       0.00000000
Si       2.71181259       0.00174303       2.71607673       0.00000000
Si      -2.71579454      -2.71301153      -0.00179498       0.00000000
Si      -0.00301854      -2.71326566       2.71624932       0.00000000
Si       2.71184517       2.71842633      -0.00307217       0.00000000
Si      -0.00315700       2.71639008       2.71628384       0.00000000
