10
Lattice="16.28999089631971 0.0 0.0 0.0 16.28999089631971 0.0 0.0 0.0 34.51877397758722" Properties=species:S:1:pos:R:3:initial_magmoms:R:1 pbc="T T T"
Si       1.35687555       1.35665677      -1.35558753       0.00000000
Si       1.35278676      -1.35682668       1.35983334       0.00000000
Si      -1.35840681       1.35617508       1.35683021       0.00000000
Si      -1.35819504      -1.35822762      -1.35513879       0.00000000
Si      -0.01208718       2.71355792       2.70451293       0.00000000
Si       0.00105885      -2.70361872       2.72156522       0.00000000
Si       2.71381626       2.71160964       0.00303765       0.00000000
Si      -0.00058644       2.71378598      -2.71224514       0.00000000
Si       2.71459818      -0.00114030      -2.71241774       0.00000000
Si      -2.71480995       2.71273527       0.00124268       0.00000000
