10
Lattice="16.28999089631971 0.0 0.0 0.0 16.28999089631971 0.0 0.0 0.0 34.51877397758722" Properties=species:S:1:pos:R:3:initial_magmoms:R:1 pbc="T T T"
Si      -2.00226906      -1.28082731       0.34004463       0.00000000
Si       0.12357594       1.28835981       2.04116528       0.00000000
Si       1.77292215      -1.63761415       0.14387433       0.00000000
Si       0.73415772       1.76891481      -1.49752881       0.00000000
Si      -1.62399897      -1.83427420       2.64731529       0.00000000
Si       2.99823966      -0.54042075       2.07268094       0.00000000
Si       2.38386231       1.70987985       2.29132298       0.00000000
Si       3.09723399       1.47979989      -1.45099748       0.00000000
Si      -0.18202446       3.71767122      -0.47042211       0.00000000
Si       0.92406654      -3.34882394      -1.57564484       0.00000000
