10
Lattice="16.28999089631971 0.0 0.0 0.0 16.28999089631971 0.0 0.0 0.0 34.51877397758722" Properties=species:S:1:pos:R:3:initial_magmoms:R:1 pbc="T T T"
Si       1.44611217      -1.13958324       1.44726945       0.00000000
Si      -1.25582868      -1.51920540      -1.38734482       0.00000000
Si      -1.27606086       1.53453429       1.37723081       0.00000000
Si       0.99608463      -0.77980230      -2.15818399       0.00000000
Si       0.81883314       1.52712234      -3.01590697       0.00000000
Si      -2.29589631       0.37352970      -2.71973572       0.00000000
Si      -0.00032580      -2.44766535       2.82443955       0.00000000
Si       3.19714056      -2.01523590       0.08533046       0.00000000
Si      -2.63070468       0.30261933       2.88381187       0.00000000
Si       2.70956457       0.29216115       2.86101566       0.00000000
