10
Lattice="16.28999089631971 0.0 0.0 0.0 16.28999089631971 0.0 0.0 0.0 34.51877397758722" Properties=species:S:1:pos:R:3:initial_magmoms:R:1 pbc="T T T"
Si      -1.26768780       1.30927617      -1.43691036       0.00000000
Si      -1.37297007      -1.32673905       1.34845595       0.00000000
Si       1.34169327       1.39025376       1.34766202       0.00000000
Si       1.37220444      -1.23773049      -1.49933414       0.00000000
Si       0.49047561       2.33724033      -2.58134332       0.00000000
Si       2.68615584      -2.66540238      -0.01663806       0.00000000
Si       2.28299463       0.67968396      -2.95860719       0.00000000
Si      -0.01720224      -2.68568343       2.70652883       0.00000000
Si       2.69809641       0.03067407       2.70525164       0.00000000
Si      -2.74512564      -2.67105501      -0.02301023       0.00000000
