10
Lattice="16.28999089631971 0.0 0.0 0.0 16.28999089631971 0.0 0.0 0.0 34.51877397758722" Properties=species:S:1:pos:R:3:initial_magmoms:R:1 pbc="T T T"
Si       2.19278061       0.35248302      -0.69161854       0.00000000
Si       0.19510533      -0.08464284       2.32549658       0.00000000
Si      -1.24748820      -2.05700346      -0.10621433       0.00000000
Si      -1.11265587       2.08034703      -0.51098170       0.00000000
Si      -3.15545445      -0.84405006       0.66203594       0.00000000
Si      -2.14969356       0.20559609       2.56395241       0.00000000
Si       2.39741559       2.41302141       0.50466476       0.00000000
Si      -3.23656236       1.08944262      -0.68830474       0.00000000
Si       1.57125195       1.79370819       2.63302451       0.00000000
Si       3.10655187      -1.78320114      -0.41816066       0.00000000
