10
Lattice="16.28999089631971 0.0 0.0 0.0 16.28999089631971 0.0 0.0 0.0 34.51877397758722" Properties=species:S:1:pos:R:3:initial_magmoms:R:1 pbc="T T T"
Si      -1.80687051       1.25327115       0.97367160       0.00000000
Si       1.29029832       0.12714345       2.11482839       0.00000000
Si      -0.87267159      -2.07790353      -1.05492884       0.00000000
Si       0.64026216       1.31315319      -2.19290990       0.00000000
Si      -2.37045564      -0.97814934      -2.53464595       0.00000000
Si       2.78034462      -0.67083849      -2.33819950       0.00000000
Si      -0.31240962       3.50581977      -1.17174044       0.00000000
Si      -0.16177599      -0.99678510       3.62254024       0.00000000
Si      -1.93145643       0.62120286       3.26092136       0.00000000
Si      -0.63421857       0.10713933      -3.82737476       0.00000000
