10
Lattice="16.28999089631971 0.0 0.0 0.0 16.28999089631971 0.0 0.0 0.0 34.51877397758722" Properties=species:S:1:pos:R:3:initial_magmoms:R:1 pbc="T T T"
Si      -1.22236902       1.79302305       0.76704211       0.00000000
Si      -0.01739772      -0.21032019      -2.32749867       0.00000000
Si       2.16031464       0.67462854       0.63918449       0.00000000
Si      -0.71786772      -1.77587064       1.85814664       0.00000000
Si      -1.15680177       0.49904415       2.77634654       0.00000000
Si       2.27313918      -0.93327039      -2.28158868       0.00000000
Si       0.48179304      -3.44781108       0.04542673       0.00000000
Si      -1.85991075      -1.71030339      -2.40799650       0.00000000
Si      -3.21191559       1.44733459      -0.48529971       0.00000000
Si       2.55308283      -2.53299726      -0.52285616       0.00000000
