10
Lattice="16.28999089631971 0.0 0.0 0.0 16.28999089631971 0.0 0.0 0.0 34.51877397758722" Properties=species:S:1:pos:R:3:initial_magmoms:R:1 pbc="T T T"
Si      -1.35369900      -1.35597308       1.35966075       0.00000000
Si       1.36209554       1.35703845       1.36145573       0.00000000
Si      -1.45298655       1.31090517      -1.32098589       0.00000000
Si       1.31958678      -1.37793038      -1.40619899       0.00000000
Si       2.53592036       0.02456532      -2.86535122       0.00000000
Si       2.71713032      -2.70812195      -0.01367980       0.00000000
Si       2.71748870       2.71024875      -0.02200918       0.00000000
Si       0.00268890      -2.71400148       2.72056417       0.00000000
Si      -2.71448415       0.00162900       2.72066773       0.00000000
Si       0.00253674       2.71609686       2.71994283       0.00000000
