10
Lattice="16.28999089631971 0.0 0.0 0.0 16.28999089631971 0.0 0.0 0.0 34.51877397758722" Properties=species:S:1:pos:R:3:initial_magmoms:R:1 pbc="T T T"
Si       1.35369900       1.35597308      -1.35966075       0.00000000
Si       1.35638790      -1.35802839       1.36090342       0.00000000
Si      -1.36078515       1.35760208       1.36100698       0.00000000
Si      -1.36409202      -1.37537840      -1.37660602       0.00000000
Si      -0.09928755       2.66687825      -2.68064664       0.00000000
Si       2.71579454       2.71301153       0.00179498       0.00000000
Si       2.71207879      -2.71699022       0.00227824       0.00000000
Si      -2.71536381      -2.71511687       0.00134623       0.00000000
Si       2.71277600      -0.00025412       2.71804430       0.00000000
Si      -0.00177561       2.71437989       2.71825141       0.00000000
