10
Lattice="16.28999089631971 0.0 0.0 0.0 16.28999089631971 0.0 0.0 0.0 34.51877397758722" Properties=species:S:1:pos:R:3:initial_magmoms:R:1 pbc="T T T"
Si      -1.27260738       1.42382745       1.31945326       0.00000000
Si       1.45298655      -1.31090517       1.32098589       0.00000000
Si      -1.26345240      -1.43174439      -1.41374621       0.00000000
Si       1.22510574       1.53288900      -1.53504525       0.00000000
Si       2.01743409      -0.38662686      -2.65459328       0.00000000
Si       0.48757599      -2.30739705      -2.77568520       0.00000000
Si      -2.61992070       0.04922838       2.68527216       0.00000000
Si       0.09928755      -2.66687825       2.68064664       0.00000000
Si       0.09534537       2.76172515       2.68071568       0.00000000
Si      -2.58655878       2.85149934      -0.16324283       0.00000000
