10
Lattice="16.28999089631971 0.0 0.0 0.0 16.28999089631971 0.0 0.0 0.0 34.51877397758722" Properties=species:S:1:pos:R:3:initial_magmoms:R:1 pbc="T T T"
Si       1.35231435       1.35215145       1.35710636       0.00000000
Si      -1.35757602       1.35363384      -1.36059276       0.00000000
Si       1.35615879      -1.36075257      -1.35976430       0.00000000
Si      -1.37658645      -1.36561025       1.36135217       0.00000000
Si       2.56443696      -0.05833449       2.81535278       0.00000000
Si       2.70918493       2.71445157      -0.00383159       0.00000000
Si      -2.71689507       2.71151937       0.00131171       0.00000000
Si       0.00006516       2.71205694      -2.71780267       0.00000000
Si      -2.71391400      -2.71689025      -0.00258891       0.00000000
Si       2.71449030      -0.00206883      -2.71721585       0.00000000
