10
Lattice="16.28999089631971 0.0 0.0 0.0 16.28999089631971 0.0 0.0 0.0 34.51877397758722" Properties=species:S:1:pos:R:3:initial_magmoms:R:1 pbc="T T T"
Si       0.42912747       1.15605243       1.98469254       0.00000000
Si       1.31891985       1.34982198      -1.40070359       0.00000000
Si       0.26738406      -2.35650488      -0.11922791       0.00000000
Si      -2.36307627       0.28911492      -0.04653133       0.00000000
Si      -2.42025417       0.96923871      -2.33236582       0.00000000
Si      -0.40347072       2.33409636      -2.61742202       0.00000000
Si      -3.09723399      -1.47979989       1.45099748       0.00000000
Si       0.20334807       3.45579318       1.39518059       0.00000000
Si      -1.32431184      -3.11741404       1.59487181       0.00000000
Si       2.08865120       3.10914198      -0.06020078       0.00000000
