10
Lattice="16.28999089631971 0.0 0.0 0.0 16.28999089631971 0.0 0.0 0.0 34.51877397758722" Properties=species:S:1:pos:R:3:initial_magmoms:R:1 pbc="T T T"
Si      -0.61437735       2.25030060       0.21864204       0.00000000
Si       2.24885325      -0.77051048       0.15191721       0.00000000
Si      -1.07776269      -0.43619733       2.10102087       0.00000000
Si      -1.22531751      -1.09719340      -1.92880661       0.00000000
Si      -1.01794581      -3.04239275      -0.40556130       0.00000000
Si      -2.87466372       1.82878056      -0.03151566       0.00000000
Si      -0.89042769      -2.78574380       1.94910366       0.00000000
Si       0.52812180       3.17627307      -1.53898588       0.00000000
Si       0.36637839      -0.33628424      -3.64290633       0.00000000
Si      -2.99823966       0.54042075      -2.07268094       0.00000000
