10
Lattice="16.28999089631971 0.0 0.0 0.0 16.28999089631971 0.0 0.0 0.0 34.51877397758722" Properties=species:S:1:pos:R:3:initial_magmoms:R:1 pbc="T T T"
Si       2.31219513      -0.55104183       0.09175095       0.00000000
Si       0.10736739       1.96245630      -1.35555301       0.00000000
Si      -1.09574685      -1.44550944      -1.57554128       0.00000000
Si      -1.45412685      -0.11385081       1.91924491       0.00000000
Si      -0.63236151       1.24098849      -3.45792012       0.00000000
Si       2.50819803      -2.43692603      -1.29524868       0.00000000
Si      -0.01798416      -1.00931211      -3.67656215       0.00000000
Si      -1.95659190      -2.44352348       2.23792241       0.00000000
Si      -3.34502118       1.31795874       1.53018359       0.00000000
Si      -3.34190979      -0.65752956      -1.93225849       0.00000000
