10
Lattice="16.28999089631971 0.0 0.0 0.0 16.28999089631971 0.0 0.0 0.0 34.51877397758722" Properties=species:S:1:pos:R:3:initial_magmoms:R:1 pbc="T T T"
Si       1.75214330       1.51594740       0.27621938       0.00000000
Si       0.27376878      -2.35027233      -0.09648003       0.00000000
Si      -1.04682798       0.31428297       2.10253970       0.00000000
Si      -1.60366905       0.62705097      -1.71862168       0.00000000
Si      -2.84596074      -1.05785631       1.54278295       0.00000000
Si      -3.43746693       0.42448482      -0.18571111       0.00000000
Si      -1.92163356      -2.98853082       0.57252871       0.00000000
Si      -1.35132066       2.63375091       2.12773842       0.00000000
Si       0.70045438       3.38665842       1.27605623       0.00000000
Si       2.52440333       2.01209193      -1.82635483       0.00000000
