10
Lattice="16.28999089631971 0.0 0.0 0.0 16.28999089631971 0.0 0.0 0.0 34.51877397758722" Properties=species:S:1:pos:R:3:initial_magmoms:R:1 pbc="T T T"
Si       1.37877487      -0.18482634       1.86101170       0.00000000
Si      -1.79913276      -1.37213928      -0.55975675       0.00000000
Si      -0.30449268       2.31946794       0.02519872       0.00000000
Si       1.04682798      -0.31428297      -2.10253970       0.00000000
Si      -2.39063895       0.11020185      -2.28825081       0.00000000
Si      -2.05698717       2.37096063      -1.51375264       0.00000000
Si       2.79897128       1.20166443      -1.82632031       0.00000000
Si       1.74728236       3.07237545      -0.82648347       0.00000000
Si       1.32059676      -2.66455530      -2.19901973       0.00000000
Si       1.73526360       2.12797899       2.48504245       0.00000000
