10
Lattice="16.28999089631971 0.0 0.0 0.0 16.28999089631971 0.0 0.0 0.0 34.51877397758722" Properties=species:S:1:pos:R:3:initial_magmoms:R:1 pbc="T T T"
Si      -1.81814319      -0.80998767      -1.37996957       0.00000000
Si      -1.38484548       1.25325486       1.56062916       0.00000000
Si       1.30712720      -1.45246527       1.53429132       0.00000000
Si       1.15631307       1.90307925      -1.19974695       0.00000000
Si      -2.63797002       2.62928745       0.14152360       0.00000000
Si      -0.86058441       3.42984321      -1.33378343       0.00000000
Si      -3.61066221       0.84756870      -1.00270570       0.00000000
Si      -2.72893338      -2.72740212       0.07930348       0.00000000
Si       2.60826588      -2.87311617       0.12882068       0.00000000
Si      -0.04408074       2.60861544       2.92519503       0.00000000
