10
Lattice="16.28999089631971 0.0 0.0 0.0 16.28999089631971 0.0 0.0 0.0 34.51877397758722" Properties=species:S:1:pos:R:3:initial_magmoms:R:1 pbc="T T T"
Si      -1.35439947       1.35604476       1.36031661       0.00000000
Si       1.35760860       1.35648459      -1.35745155       0.00000000
Si      -1.35754344      -1.35817875      -1.35714088       0.00000000
Si       1.36093176      -1.36111095       1.35938460       0.00000000
Si       2.71402803       2.71366965       0.00031067       0.00000000
Si       0.00024435       2.71339272      -2.71483405       0.00000000
Si      -2.71435383      -2.71507059      -0.00013808       0.00000000
Si      -2.71464705      -0.00087966      -2.71483405       0.00000000
Si       2.71477737      -0.00057015      -2.71497213       0.00000000
Si      -2.71562445       2.71461447       0.00089749       0.00000000
