10
Lattice="16.28999089631971 0.0 0.0 0.0 16.28999089631971 0.0 0.0 0.0 34.51877397758722" Properties=species:S:1:pos:R:3:initial_magmoms:R:1 pbc="T T T"
Si      -1.35641943      -1.35718506      -1.35776221       0.00000000
Si      -1.35648459       1.35777150       1.35769318       0.00000000
Si       1.35849951       1.35769005      -1.35762414       0.00000000
Si       1.35927258      -1.35643572       1.36221514       0.00000000
Si      -2.71402803      -2.71366965      -0.00031067       0.00000000
Si      -2.71378368      -0.00027693      -2.71514472       0.00000000
Si       0.00074934      -2.71423980      -2.71528280       0.00000000
Si      -2.71555929       2.71498914      -0.00151883       0.00000000
Si       2.71458256      -2.71621089      -0.00055230       0.00000000
Si       0.00118917       2.71539639      -2.71542087       0.00000000
