10
Lattice="16.28999089631971 0.0 0.0 0.0 16.28999089631971 0.0 0.0 0.0 34.51877397758722" Properties=species:S:1:pos:R:3:initial_magmoms:R:1 pbc="T T T"
Si      -1.17678960       1.47101958      -1.38979565       0.00000000
Si      -1.77964992      -0.61626699       1.41979249       0.00000000
Si       1.93181481       0.70791453       1.21174772       0.00000000
Si       1.53850905      -1.27307979      -1.36432079       0.00000000
Si      -0.31925142      -1.15413021       3.18977813       0.00000000
Si      -2.64613131      -2.57136021       0.25709597       0.00000000
Si      -2.52030735       0.09107739      -2.75477230       0.00000000
Si       0.19502388      -2.62607832      -2.75570430       0.00000000
Si      -2.60615565       2.79748170       0.06234094       0.00000000
Si       2.85000066       2.58426189       0.09016309       0.00000000
