10
Lattice="16.28999089631971 0.0 0.0 0.0 16.28999089631971 0.0 0.0 0.0 34.51877397758722" Properties=species:S:1:pos:R:3:initial_magmoms:R:1 pbc="T T T"
Si      -1.16600888       1.50009723      -1.37198396       0.00000000
Si      -1.55851317      -1.02641661       1.48075267       0.00000000
Si       1.28314701       1.66781907       1.13083567       0.00000000
Si       1.56095667      -1.23118191      -1.36463145       0.00000000
Si      -2.52000999       0.13452282      -2.74928381       0.00000000
Si      -3.35201678       0.89640612       1.39549126       0.00000000
Si      -2.66475797      -2.63826324       0.06990056       0.00000000
Si      -2.42079141       2.88491013       0.19009499       0.00000000
Si       0.20383677      -2.58251886      -2.74313946       0.00000000
Si       1.56392145       1.07564499       3.37441915       0.00000000
