10
Lattice="16.28999089631971 0.0 0.0 0.0 16.28999089631971 0.0 0.0 0.0 34.51877397758722" Properties=species:S:1:pos:R:3:initial_magmoms:R:1 pbc="T T T"
Si      -0.78757263       1.86026913      -1.12258568       0.00000000
Si       0.87592049       0.81761139       2.02311195       0.00000000
Si      -1.70684991      -1.52497206       0.56586658       0.00000000
Si       1.66562548      -1.05117741      -1.33366810       0.00000000
Si       1.11025865       3.32905698      -1.00280546       0.00000000
Si       1.12081783      -1.08273114       3.36896519       0.00000000
Si       0.47130228      -1.38052863      -3.50006756       0.00000000
Si       2.94476678      -2.45729763       0.26655412       0.00000000
Si      -2.64456747       2.81790936      -0.06113278       0.00000000
Si       3.08194487       1.66079808       1.81513623       0.00000000
