10
Lattice="16.28999089631971 0.0 0.0 0.0 16.28999089631971 0.0 0.0 0.0 34.51877397758722" Properties=species:S:1:pos:R:3:initial_magmoms:R:1 pbc="T T T"
Si      -1.75249449       0.05149269      -1.53895136       0.00000000
Si       0.30449268      -2.31946794      -0.02519872       0.00000000
Si       2.05177504       0.75290751      -0.85168219       0.00000000
Si      -0.17208756       1.50480504       1.86574078       0.00000000
Si       2.03975628      -0.19148895       2.45984373       0.00000000
Si      -2.55404394       1.43192358       1.73008192       0.00000000
Si       1.68326755      -2.50429428       1.83581298       0.00000000
Si       1.35132066      -2.63375091      -2.12773842       0.00000000
Si      -3.33560556       1.47582513      -0.50932479       0.00000000
Si       3.30565544       1.28036142       1.06566419       0.00000000
