10
Lattice="16.28999089631971 0.0 0.0 0.0 16.28999089631971 0.0 0.0 0.0 34.51877397758722" Properties=species:S:1:pos:R:3:initial_magmoms:R:1 pbc="T T T"
Si       1.15644339       2.09797281      -0.58878706       0.00000000
Si      -1.79813907       0.29455578      -1.79166345       0.00000000
Si       1.37896479      -2.07513423       0.63497320       0.00000000
Si      -0.46843524      -0.39216546       2.50440749       0.00000000
Si      -2.26095426       1.26539091       2.88167136       0.00000000
Si       1.66879647      -3.20284206      -1.53442940       0.00000000
Si       1.04409126       2.24731953      -3.04704292       0.00000000
Si       3.68494039      -1.36317978       0.95409945       0.00000000
Si      -3.83181525       1.08631494      -0.78381824       0.00000000
Si      -1.33786512       2.17443807      -3.18270178       0.00000000
