10
Lattice="16.28999089631971 0.0 0.0 0.0 16.28999089631971 0.0 0.0 0.0 34.51877397758722" Properties=species:S:1:pos:R:3:initial_magmoms:R:1 pbc="T T T"
Si       0.18832869       2.26623222      -0.76573039       0.00000000
Si      -0.53835192       0.03073923       2.36508964       0.00000000
Si      -1.60045992      -1.44055728      -1.14122582       0.00000000
Si       2.36221290      -0.94332132      -0.36469105       0.00000000
Si       1.45533231       1.12286970       2.79129318       0.00000000
Si      -0.07216470      -2.54541839      -2.60761868       0.00000000
Si      -0.72886347      -2.28046968       2.94058696       0.00000000
Si       1.74306258      -3.26242925      -1.12234404       0.00000000
Si       3.26396214      -0.19728819       2.08935352       0.00000000
Si      -1.74915504      -3.33293074       1.02082427       0.00000000
