10
Lattice="16.28999089631971 0.0 0.0 0.0 16.28999089631971 0.0 0.0 0.0 34.51877397758722" Properties=species:S:1:pos:R:3:initial_magmoms:R:1 pbc="T T T"
Si      -0.74849292      -1.81436391      -1.37902721       0.00000000
Si       1.48588031       1.33015995      -1.37043203       0.00000000
Si       1.42728696      -1.25600787       1.50543706       0.00000000
Si      -1.29508758       1.42462566       1.50134314       0.00000000
Si      -2.52587853      -2.61491967       0.09627982       0.00000000
Si       1.26840456      -3.34112787      -1.24499074       0.00000000
Si       2.94457455      -2.38990590       0.05905820       0.00000000
Si      -2.74017348       2.72705581       0.16072641       0.00000000
Si       0.06801075      -2.63559168       2.87995125       0.00000000
Si       2.74229022       2.77804677       0.11208943       0.00000000
