10
Lattice="16.28999089631971 0.0 0.0 0.0 16.28999089631971 0.0 0.0 0.0 34.51877397758722" Properties=species:S:1:pos:R:3:initial_magmoms:R:1 pbc="T T T"
Si       1.35777150       1.35755973       1.35745155       0.00000000
Si      -1.35720135      -1.35811359       1.35772770       0.00000000
Si      -1.35589815       1.35809730      -1.35910845       0.00000000
Si       1.35847197      -1.36238157      -1.35845259       0.00000000
Si       2.71398979      -2.71472850       0.00124268       0.00000000
Si      -2.71489140      -2.71445157       0.00065586       0.00000000
Si      -2.71490769      -0.00003258       2.71473050       0.00000000
Si      -0.00027693       2.71501526       2.71493761       0.00000000
Si       0.00016290      -2.71502172       2.71511020       0.00000000
Si       2.71508184      -0.00014661       2.71524828       0.00000000
