10
Lattice="16.28999089631971 0.0 0.0 0.0 16.28999089631971 0.0 0.0 0.0 34.51877397758722" Properties=species:S:1:pos:R:3:initial_magmoms:R:1 pbc="T T T"
Si      -2.10598749       0.57870225      -0.84992173       0.00000000
Si      -0.05734080      -0.61612038       2.29256565       0.00000000
Si       1.31062239       1.93683213      -0.41771192       0.00000000
Si       1.28698235      -1.67824467      -1.12034195       0.00000000
Si       3.45798323       1.16460468       0.01574057       0.00000000
Si       2.19177619      -0.86219712       2.89982027       0.00000000
Si      -2.29332249       2.92824872      -0.69800452       0.00000000
Si       3.49300673      -0.83505798      -1.32831768       0.00000000
Si       1.03329345       2.59393556      -2.64710818       0.00000000
Si       1.53187969      -3.57858720       0.22551128       0.00000000
