10
Lattice="16.28999089631971 0.0 0.0 0.0 16.28999089631971 0.0 0.0 0.0 34.51877397758722" Properties=species:S:1:pos:R:3:initial_magmoms:R:1 pbc="T T T"
Si       2.00352339      -1.01731050       0.39648286       0.00000000
Si      -0.96601329      -0.43096824      -2.09132109       0.00000000
Si       0.43960194       1.95380631       1.22707406       0.00000000
Si      -1.10338686      -1.33617096       1.62466152       0.00000000
Si       0.97389765      -0.47223081       2.58842623       0.00000000
Si      -1.84101435       2.38668048       1.10228863       0.00000000
Si      -2.45613615       0.48122289       2.41148290       0.00000000
Si      -3.24163018       0.08262288      -1.61958726       0.00000000
Si      -0.73741572      -2.81373912      -2.47900166       0.00000000
Si       2.12986863      -3.16402299      -0.38398706       0.00000000
