10
Lattice="16.28999089631971 0.0 0.0 0.0 16.28999089631971 0.0 0.0 0.0 34.51877397758722" Properties=species:S:1:pos:R:3:initial_magmoms:R:1 pbc="T T T"
Si      -1.35706777       1.35702216      -1.35903941       0.00000000
Si       1.35821133       1.35780408       1.35731347       0.00000000
Si      -1.35828301      -1.35943308       1.35565657       0.00000000
Si       1.35772263      -1.35729909      -1.35928104       0.00000000
Si       2.71231758       0.00130320       2.71535183       0.00000000
Si      -2.71436605       2.71446786      -0.00141527       0.00000000
Si      -0.00136836       2.71590138       2.71431627       0.00000000
Si       2.71500543       2.71536381      -0.00151883       0.00000000
Si      -2.71490907      -2.71564074      -0.00086297       0.00000000
Si       2.71538010      -2.71531494      -0.00148431       0.00000000
