10
Lattice="16.28999089631971 0.0 0.0 0.0 16.28999089631971 0.0 0.0 0.0 34.51877397758722" Properties=species:S:1:pos:R:3:initial_magmoms:R:1 pbc="T T T"
Si       1.23979932      -1.44357093      -1.50774637       0.00000000
Si      -1.45963450       1.25486757      -1.50063550       0.00000000
Si       1.14655536       1.76946867       1.29673299       0.00000000
Si       1.62026856      -1.31900130       2.68721902       0.00000000
Si      -2.23118917      -0.37426275       2.60030070       0.00000000
Si      -2.89236185       2.40137406      -0.03106691       0.00000000
Si       2.64694581      -2.79642285      -0.18181048       0.00000000
Si       2.70700704       2.75887440      -0.12309402       0.00000000
Si       2.59094079      -0.08966016      -2.87686527       0.00000000
Si      -0.12274515       2.62493802      -2.87790083       0.00000000
