10
Lattice="16.28999089631971 0.0 0.0 0.0 16.28999089631971 0.0 0.0 0.0 34.51877397758722" Properties=species:S:1:pos:R:3:initial_magmoms:R:1 pbc="T T T"
Si      -2.28061629       0.43287417      -0.12478544       0.00000000
Si      -0.43960194      -1.95380631      -1.22707406       0.00000000
Si       1.84075371       1.29946959      -0.81995942       0.00000000
Si       0.53429571      -2.42603712       1.36135217       0.00000000
Si      -1.13404464      -1.36358703       2.90378993       0.00000000
Si      -2.89573809      -1.47258342       1.18440883       0.00000000
Si       1.56392145      -2.97111681      -0.83059120       0.00000000
Si       0.93660984       2.22208632       2.70755059       0.00000000
Si      -1.54298880      -3.28997727       0.39758746       0.00000000
Si       1.67508441       3.31464033       0.39624123       0.00000000
