10
Lattice="16.28999089631971 0.0 0.0 0.0 16.28999089631971 0.0 0.0 0.0 34.51877397758722" Properties=species:S:1:pos:R:3:initial_magmoms:R:1 pbc="T T T"
Si      -1.35839034      -1.35713619      -1.35638146       0.00000000
Si      -1.35729828       1.35744570       1.35762414       0.00000000
Si       1.35706777      -1.35702216       1.35903941       0.00000000
Si       1.35710035       1.35879777      -1.35731347       0.00000000
Si       2.71479040      -2.71432125      -0.00024163       0.00000000
Si      -0.00219426      -2.71107954      -2.71818238       0.00000000
Si      -2.71504845      -2.71448415      -0.00003452       0.00000000
Si      -0.00083568       2.71381626      -2.71580058       0.00000000
Si      -0.00015964       2.71516833       2.71448887       0.00000000
Si      -2.71460862       2.71515204      -0.00017259       0.00000000
