10
Lattice="16.28999089631971 0.0 0.0 0.0 16.28999089631971 0.0 0.0 0.0 34.51877397758722" Properties=species:S:1:pos:R:3:initial_magmoms:R:1 pbc="T T T"
Si      -1.35585905       1.35628911      -1.35886682       0.00000000
Si       1.35957969      -1.35809730      -1.35700280       0.00000000
Si      -1.33688935      -1.37007045       1.37726533       0.00000000
Si       1.36614456       1.36565586       1.36632288       0.00000000
Si      -2.71084238       2.71242117       0.00362447       0.00000000
Si      -2.71222463      -2.71555929       0.00410774       0.00000000
Si       2.71368594      -2.71459818       0.00103556       0.00000000
Si      -2.71299769      -0.00143352      -2.71573154       0.00000000
Si       0.00242721       2.71332972      -2.71580058       0.00000000
Si       2.71616202       2.71386513      -0.00386610       0.00000000
