10
Lattice="16.28999089631971 0.0 0.0 0.0 16.28999089631971 0.0 0.0 0.0 34.35334932831803" Properties=species:S:1:pos:R:3:initial_magmoms:R:1 pbc="T T T"
Si       1.31834970      -1.37732266       1.41098903       0.00000000
Si      -0.66564198      -1.95138954      -1.17297069       0.00000000
Si      -1.40079339       1.31458345       1.42554799       0.00000000
Si       1.18825776       1.50674029      -1.56339573       0.00000000
Si      -0.76978395      -1.07691561      -3.36382142       0.00000000
Si       2.54368350       2.70517930      -0.03571033       0.00000000
Si      -2.62730007      -2.65769136      -0.03017943       0.00000000
Si      -2.56373649       2.75911549       0.04291079       0.00000000
Si       2.65947282      -0.02288256       2.77977839       0.00000000
Si      -0.05476698       2.69527498       2.78063723       0.00000000
