10
Lattice="16.28999089631971 0.0 0.0 0.0 16.28999089631971 0.0 0.0 0.0 34.35334932831803" Properties=species:S:1:pos:R:3:initial_magmoms:R:1 pbc="T T T"
Si       2.23128528      -0.28170297       0.77992453       0.00000000
Si      -0.96155749       1.28996112       1.78201229       0.00000000
Si      -1.33331599      -2.07217175       0.18097355       0.00000000
Si       0.88330407       1.02539523      -2.07875668       0.00000000
Si      -0.96089856      -0.25640623      -2.58993481       0.00000000
Si       3.00781329      -2.08352588      -0.50513193       0.00000000
Si       0.08766626       0.47537315       3.74901746       0.00000000
Si       2.04655668      -0.71190788       3.10952951       0.00000000
Si       1.12680699       3.33010443      -1.53487415       0.00000000
Si      -0.62479969      -3.23231297       2.18408411       0.00000000
