10
Lattice="16.28999089631971 0.0 0.0 0.0 16.28999089631971 0.0 0.0 0.0 34.35334932831803" Properties=species:S:1:pos:R:3:initial_magmoms:R:1 pbc="T T T"
Si      -1.35702216      -1.35793571      -1.35757642       0.00000000
Si       1.35865116       1.35615553      -1.35781689       0.00000000
Si      -1.35839052       1.35674197       1.35915667       0.00000000
Si       1.35835794      -1.35788065       1.35833219       0.00000000
Si      -2.71376413       2.71351978       0.00006871       0.00000000
Si       0.00096111       2.71435057      -2.71443141       0.00000000
Si       2.71547784       2.71335688      -0.00065271       0.00000000
Si      -2.71457863      -0.00056852      -2.71508413       0.00000000
Si      -2.71375599      -2.71716615      -0.00020612       0.00000000
Si       0.00109143      -2.71618875      -2.71477495       0.00000000
