10
Lattice="16.28999089631971 0.0 0.0 0.0 16.28999089631971 0.0 0.0 0.0 34.35334932831803" Properties=species:S:1:pos:R:3:initial_magmoms:R:1 pbc="T T T"
Si      -2.06385031       1.13450076      -0.21141063       0.00000000
Si      -0.24350292      -2.30470920      -0.54388253       0.00000000
Si       0.57769227       0.72091395       2.26216932       0.00000000
Si       1.14943869       0.86902263      -1.97799825       0.00000000
Si       0.79894305       3.13448922      -1.30068724       0.00000000
Si      -1.47336534       0.25611138       3.32331052       0.00000000
Si       1.80664245      -2.68518170      -1.76225910       0.00000000
Si      -1.42149472       3.40561998      -0.51547229       0.00000000
Si      -3.03107120       0.18458199      -2.16824721       0.00000000
Si      -3.12695414       1.05287157       1.90077188       0.00000000
