10
Lattice="16.28999089631971 0.0 0.0 0.0 16.28999089631971 0.0 0.0 0.0 34.35334932831803" Properties=species:S:1:pos:R:3:initial_magmoms:R:1 pbc="T T T"
Si       1.97881146       0.42082120       1.12496976       0.00000000
Si      -1.66351851       1.57190029       0.52299568       0.00000000
Si      -1.23579198      -1.96303689       0.54958519       0.00000000
Si       0.72591498      -0.43927712      -2.38477649       0.00000000
Si       2.96500806      -1.53729774       0.45930454       0.00000000
Si      -2.81271285      -1.48160223      -1.19697442       0.00000000
Si       2.28737664      -2.07206586      -1.75044154       0.00000000
Si      -3.38185287       0.79922975      -1.04128495       0.00000000
Si      -0.69253677       3.69289087       0.18987107       0.00000000
Si       1.53155322       0.79039243       3.38545576       0.00000000
