10
Lattice="16.28999089631971 0.0 0.0 0.0 16.28999089631971 0.0 0.0 0.0 34.35334932831803" Properties=species:S:1:pos:R:3:initial_magmoms:R:1 pbc="T T T"
Si       0.11958489       0.79275122       2.19078302       0.00000000
Si       2.11004370       0.85242475      -0.57648388       0.00000000
Si      -1.66711860       1.35437992      -1.10006357       0.00000000
Si      -0.34308369      -2.38864572       0.11851912       0.00000000
Si      -2.04550272       0.27355471       2.92759407       0.00000000
Si      -3.50552655      -0.06536362      -0.92616682       0.00000000
Si       3.72894390      -0.22027501       0.77003076       0.00000000
Si       2.55730194       0.48285352      -2.83696988       0.00000000
Si       1.70065971      -3.46834692      -0.46071303       0.00000000
Si       0.55381113       3.11444926       2.31263442       0.00000000
