10
Lattice="16.28999089631971 0.0 0.0 0.0 16.28999089631971 0.0 0.0 0.0 34.35334932831803" Properties=species:S:1:pos:R:3:initial_magmoms:R:1 pbc="T T T"
Si       1.92552687       1.24796061       0.26410870       0.00000000
Si       0.72368325      -1.77039720      -1.43415008       0.00000000
Si      -1.64151072       1.14258060      -1.31288268       0.00000000
Si      -0.39698730      -0.62262009       2.32081052       0.00000000
Si       2.94461298      -0.01032786       1.97854791       0.00000000
Si      -1.11472470      -3.19014075      -1.26025332       0.00000000
Si       2.75289597       1.37580453      -1.94738940       0.00000000
Si      -3.69256833       0.67777803      -0.25174148       0.00000000
Si       0.34529913      -2.85122241       2.59350756       0.00000000
Si       1.31299029       0.38138148       3.63640712       0.00000000
