10
Lattice="16.28999089631971 0.0 0.0 0.0 16.28999089631971 0.0 0.0 0.0 34.35334932831803" Properties=species:S:1:pos:R:3:initial_magmoms:R:1 pbc="T T T"
Si       0.11785815       2.32772697       0.11676710       0.00000000
Si      -0.78265305      -0.46064862       2.16800673       0.00000000
Si       2.17235295      -0.84636324       0.39836166       0.00000000
Si      -1.36047564      -0.75043143      -1.86147163       0.00000000
Si       1.93978062      -3.05813799      -0.36720316       0.00000000
Si      -0.34686297       0.40408974      -3.73915804       0.00000000
Si      -1.31988096       3.03657003       1.86253658       0.00000000
Si      -0.69880842       1.48468689       3.52355630       0.00000000
Si       0.38213082       3.31437969      -1.99802627       0.00000000
Si       2.22586560       3.16302930       0.82733217       0.00000000
