10
Lattice="16.28999089631971 0.0 0.0 0.0 16.28999089631971 0.0 0.0 0.0 34.35334932831803" Properties=species:S:1:pos:R:3:initial_magmoms:R:1 pbc="T T T"
Si      -1.87136262      -1.00233999      -0.99164434       0.00000000
Si       1.36940256      -1.65705138       0.97116973       0.00000000
Si      -0.37973619       1.80579537       1.47389692       0.00000000
Si       0.90681543       0.64622430      -2.09857858       0.00000000
Si      -0.86279985       3.29189949      -0.24566094       0.00000000
Si      -0.85586031      -2.99032272      -1.63759072       0.00000000
Si      -2.38487229       0.90083700       2.44468876       0.00000000
Si       2.99918448      -0.47053665      -1.94766423       0.00000000
Si       0.83974950       3.01975875      -1.86796441       0.00000000
Si       0.13374090      -3.65889690       0.46624392       0.00000000
