10
Lattice="16.28999089631971 0.0 0.0 0.0 16.28999089631971 0.0 0.0 0.0 34.35334932831803" Properties=species:S:1:pos:R:3:initial_magmoms:R:1 pbc="T T T"
Si       1.35703845       1.35677781      -1.35712982       0.00000000
Si      -1.35822762       1.35583299       1.35822913       0.00000000
Si      -1.35830907      -1.35827649      -1.35640840       0.00000000
Si       1.35832536      -1.35881406       1.36180188       0.00000000
Si      -0.00089595       2.71435383      -2.71419094       0.00000000
Si       2.71331127       2.71523349      -0.00017177       0.00000000
Si       2.71435383      -0.00061902      -2.71425965       0.00000000
Si       2.71303434      -2.71565703      -0.00048095       0.00000000
Si      -2.71551042      -2.71368594       0.00003435       0.00000000
Si      -2.71612944      -0.00060273      -2.71408788       0.00000000
