10
Lattice="16.28999089631971 0.0 0.0 0.0 16.28999089631971 0.0 0.0 0.0 34.35334932831803" Properties=species:S:1:pos:R:3:initial_magmoms:R:1 pbc="T T T"
Si       1.35822762      -1.35583299      -1.35822913       0.00000000
Si      -1.35899325       1.35757602      -1.35733594       0.00000000
Si      -1.35332433      -1.36078515       1.36588993       0.00000000
Si       1.35769005       1.36645407       1.39814775       0.00000000
Si      -2.55984318       0.03446964       2.82738529       0.00000000
Si      -0.00008145      -2.71410948      -2.71463753       0.00000000
Si      -2.71498914       0.00078192      -2.71518719       0.00000000
Si       2.71526607       0.00094482      -2.71535896       0.00000000
Si      -0.00026064       2.71604799      -2.71484365       0.00000000
Si       2.71655298      -2.71464705       0.00357275       0.00000000
