10
Lattice="16.28999089631971 0.0 0.0 0.0 16.28999089631971 0.0 0.0 0.0 34.35334932831803" Properties=species:S:1:pos:R:3:initial_magmoms:R:1 pbc="T T T"
Si      -1.16854686       1.32190092      -1.58018625       0.00000000
Si       0.97427232       1.62377091       1.52683546       0.00000000
Si       1.53818325      -1.38039831      -1.53947750       0.00000000
Si      -1.92990888      -0.78773553       1.68249058       0.00000000
Si       1.42789995      -0.14954220       3.29222072       0.00000000
Si      -2.37506571       2.71715571      -0.11869089       0.00000000
Si      -2.59387299      -2.64578922       0.05022462       0.00000000
Si       2.72258028       2.55964770      -0.02511231       0.00000000
Si      -3.38968836       1.17428094       1.33857900       0.00000000
Si      -2.53180809      -0.03402981      -2.94707243       0.00000000
