10
Lattice="16.28999089631971 0.0 0.0 0.0 16.28999089631971 0.0 0.0 0.0 34.35334932831803" Properties=species:S:1:pos:R:3:initial_magmoms:R:1 pbc="T T T"
Si      -0.47658024      -1.74715137       1.46386574       0.00000000
Si      -1.89737775      -0.82497447      -1.20271143       0.00000000
Si       1.87170471       0.08979048      -1.55294402       0.00000000
Si      -0.27844497       2.77552278       1.38986858       0.00000000
Si       2.99863062       1.98068481      -0.67318861       0.00000000
Si       1.14917805       3.57010011      -0.35487030       0.00000000
Si      -3.00913767      -1.20980943       1.93828576       0.00000000
Si      -2.38044141       0.66112965      -2.92226929       0.00000000
Si       3.11212305      -1.93671810      -1.53600781       0.00000000
Si       0.13414815      -3.93493095       0.61973477       0.00000000
