10
Lattice="16.28999089631971 0.0 0.0 0.0 16.28999089631971 0.0 0.0 0.0 34.35334932831803" Properties=species:S:1:pos:R:3:initial_magmoms:R:1 pbc="T T T"
Si      -0.10414197       0.87447393      -2.19085073       0.00000000
Si       0.66564198       1.95138954       1.17297069       0.00000000
Si      -1.96165809      -0.70630182       1.14279126       0.00000000
Si       1.52715492      -1.93233609      -0.00323162       0.00000000
Si       1.98399168       0.57406689       2.58395973       0.00000000
Si      -0.75551391      -2.15834355       2.58722330       0.00000000
Si       3.32089569      -0.87881292       1.17954249       0.00000000
Si      -1.94432553       2.41231184      -2.25818334       0.00000000
Si      -1.02229524      -0.75359169      -3.64296762       0.00000000
Si       2.31313113       1.23539680      -2.86541348       0.00000000
