10
Lattice="16.28999089631971 0.0 0.0 0.0 16.28999089631971 0.0 0.0 0.0 34.35334932831803" Properties=species:S:1:pos:R:3:initial_magmoms:R:1 pbc="T T T"
Si       1.35780408       1.35586557       1.35757642       0.00000000
Si      -1.35707103       1.35711990      -1.35747336       0.00000000
Si       1.35759231      -1.35752715      -1.35757642       0.00000000
Si      -1.35873261      -1.35847197       1.35750771       0.00000000
Si       2.71696023      -0.00123804       2.71192362       0.00000000
Si       0.00063531      -2.71391400      -2.71566814       0.00000000
Si       2.71464705       2.71522052       0.00010306       0.00000000
Si      -2.71472850      -2.71526607      -0.00034353       0.00000000
Si       2.71546155       0.00190593      -2.71456883       0.00000000
Si       0.00032580       2.71511641      -2.71525589       0.00000000
