10
Lattice="16.28999089631971 0.0 0.0 0.0 16.28999089631971 0.0 0.0 0.0 34.35334932831803" Properties=species:S:1:pos:R:3:initial_magmoms:R:1 pbc="T T T"
Si      -1.35695700      -1.35638685      -1.35809172       0.00000000
Si       1.35793440      -1.35757602       1.35706112       0.00000000
Si      -1.35759231       1.35752715       1.35757642       0.00000000
Si       1.35786924       1.35943308      -1.35699241       0.00000000
Si      -2.71334385       0.00356751      -2.71453447       0.00000000
Si       2.71420722       0.00087966       2.71401917       0.00000000
Si       0.00089595      -2.71435383       2.71419094       0.00000000
Si       0.00021177       2.71339272       2.71515283       0.00000000
Si      -2.71466334       2.71464705       0.00010306       0.00000000
Si      -2.71523349      -2.71495656       0.00010306       0.00000000
