10
Lattice="16.28999089631971 0.0 0.0 0.0 16.28999089631971 0.0 0.0 0.0 34.35334932831803" Properties=species:S:1:pos:R:3:initial_magmoms:R:1 pbc="T T T"
Si       1.35148356       1.33395552       1.35822913       0.00000000
Si       1.35483930      -1.35540945      -1.35548086       0.00000000
Si      -1.35915615       1.35710361      -1.35434720       0.00000000
Si      -1.35900954      -1.34835588       1.40106778       0.00000000
Si      -0.10568952       2.61366534       2.68629601       0.00000000
Si       2.62490544      -0.12540042       2.72868806       0.00000000
Si       2.71081890      -2.71130760       0.00693938       0.00000000
Si       2.71288773       0.00094482      -2.71216409       0.00000000
Si      -0.00143352      -2.71386513      -2.71243892       0.00000000
Si      -0.00231318       2.71645856      -2.71182056       0.00000000
