10
Lattice="16.28999089631971 0.0 0.0 0.0 16.28999089631971 0.0 0.0 0.0 34.35334932831803" Properties=species:S:1:pos:R:3:initial_magmoms:R:1 pbc="T T T"
Si      -0.19132605       0.04877226      -2.32063875       0.00000000
Si       1.00523961      -2.05096476       0.52454158       0.00000000
Si       1.05112854       2.03978493       0.50798326       0.00000000
Si      -2.06608418       0.32806431       1.17914502       0.00000000
Si       2.10303900      -0.14110398      -2.82700740       0.00000000
Si      -0.86977197      -3.42012527       0.13734477       0.00000000
Si      -0.65596735       3.60476523       0.16747267       0.00000000
Si      -2.68971425       2.57136021       0.90191334       0.00000000
Si       1.01263527      -2.49144147       2.81570514       0.00000000
Si      -1.43499424       1.88551863      -3.15841435       0.00000000
