10
Lattice="16.28999089631971 0.0 0.0 0.0 16.28999089631971 0.0 0.0 0.0 34.35334932831803" Properties=species:S:1:pos:R:3:initial_magmoms:R:1 pbc="T T T"
Si      -1.25762058       1.46886834      -1.30944735       0.00000000
Si       1.45717308      -1.27970982      -1.32806687       0.00000000
Si       1.91397726       0.90102012       1.07110368       0.00000000
Si      -2.03582646      -0.59634432       1.59045790       0.00000000
Si      -0.01107720       0.16610231       2.64637739       0.00000000
Si      -2.66139504      -2.59550199       0.23827496       0.00000000
Si      -2.61107523       0.10300071      -2.68258584       0.00000000
Si       0.10568952      -2.61366534      -2.68629601       0.00000000
Si       3.45398499      -0.89533098       1.42669539       0.00000000
Si      -2.63176353       2.80323926       0.16273191       0.00000000
