10
Lattice="16.28999089631971 0.0 0.0 0.0 16.28999089631971 0.0 0.0 0.0 34.35334932831803" Properties=species:S:1:pos:R:3:initial_magmoms:R:1 pbc="T T T"
Si       0.00739566      -0.44047671       2.29116356       0.00000000
Si      -1.00523961       2.05096476      -0.52454158       0.00000000
Si      -1.87501158      -1.36916051      -0.38719682       0.00000000
Si       1.86859332      -1.19283755      -0.85313155       0.00000000
Si      -0.90440451      -3.40607840       0.24806567       0.00000000
Si       1.84008582      -0.31874154      -3.07885195       0.00000000
Si      -0.07817571      -2.76465965       2.35997336       0.00000000
Si      -1.19656566       2.09973702      -2.84518033       0.00000000
Si      -3.36666149      -0.87265041       1.41821011       0.00000000
Si       1.15463520      -3.48132191      -0.81829724       0.00000000
