10
Lattice="16.28999089631971 0.0 0.0 0.0 16.28999089631971 0.0 0.0 0.0 34.35334932831803" Properties=species:S:1:pos:R:3:initial_magmoms:R:1 pbc="T T T"
Si      -0.34055874       2.34220878      -0.47091598       0.00000000
Si       0.04196304      -0.21577734      -2.42792432       0.00000000
Si       2.24663535      -0.27790740       0.91019250       0.00000000
Si      -1.81429875      -0.75712662       1.54878727       0.00000000
Si      -2.73437424       1.93694616      -0.39794942       0.00000000
Si       2.08002123       1.02066624      -2.52425117       0.00000000
Si      -0.51137568      -2.28312495       2.80443724       0.00000000
Si       3.67425837       0.51666993      -0.83454638       0.00000000
Si       2.52508032      -3.05343018      -0.47967608       0.00000000
Si       2.20889142       1.16346438       3.16882002       0.00000000
