10
Lattice="16.28999089631971 0.0 0.0 0.0 16.28999089631971 0.0 0.0 0.0 34.35334932831803" Properties=species:S:1:pos:R:3:initial_magmoms:R:1 pbc="T T T"
Si      -0.90495415       2.20348477      -0.29794677       0.00000000
Si      -1.12613977      -0.98422388      -1.94831694       0.00000000
Si       2.24791737      -0.55205018      -1.07536349       0.00000000
Si      -0.95263498      -0.40987921       2.38209693       0.00000000
Si      -1.58908528      -3.03330130      -0.72963119       0.00000000
Si       0.55582295      -3.51037024       0.61588719       0.00000000
Si      -0.83080207       2.26745560      -2.71192362       0.00000000
Si       2.45507730       1.82205442       2.08322262       0.00000000
Si       3.63413121       0.69493303       0.30526403       0.00000000
Si       2.16234600      -2.87623312      -1.00655370       0.00000000
