10
Lattice="16.28999089631971 0.0 0.0 0.0 16.28999089631971 0.0 0.0 0.0 34.35334932831803" Properties=species:S:1:pos:R:3:initial_magmoms:R:1 pbc="T T T"
Si      -1.35602847      -1.35780408      -1.35654582       0.00000000
Si       1.35863487       1.35711990      -1.35620228       0.00000000
Si      -1.35470898       1.35684297       1.36228283       0.00000000
Si       1.35793440      -1.35734796       1.36087434       0.00000000
Si      -2.71397916      -0.00079821      -2.71333211       0.00000000
Si      -2.71303434       2.71565703       0.00048095       0.00000000
Si       0.00087966      -2.71489140      -2.71381305       0.00000000
Si       0.00131949       2.71503801      -2.71377870       0.00000000
Si       2.71608057      -0.00003258      -2.71381305       0.00000000
Si      -2.71420722      -2.71578735       0.00051530       0.00000000
