10
Lattice="16.28999089631971 0.0 0.0 0.0 16.28999089631971 0.0 0.0 0.0 34.35334932831803" Properties=species:S:1:pos:R:3:initial_magmoms:R:1 pbc="T T T"
Si      -1.52202357      -1.31865921       1.33136480       0.00000000
Si       1.28101302      -1.38100104      -1.51797230       0.00000000
Si      -1.43011539       1.34042265      -1.49237904       0.00000000
Si       1.70092035       1.11703788       1.43950920       0.00000000
Si       2.66950746      -2.66100408      -0.07245125       0.00000000
Si       2.70493821       2.80295514       0.00302310       0.00000000
Si       3.54975390      -0.70850097       1.50917783       0.00000000
Si       2.64567519      -0.02533095      -2.89681345       0.00000000
Si      -2.80427463      -2.75476932      -0.05286983       0.00000000
Si      -0.06696819       2.68885998      -2.89540496       0.00000000
