10
Lattice="16.28999089631971 0.0 0.0 0.0 16.28999089631971 0.0 0.0 0.0 34.35334932831803" Properties=species:S:1:pos:R:3:initial_magmoms:R:1 pbc="T T T"
Si      -2.19014163      -0.30981951       0.61918511       0.00000000
Si       1.05217110       1.00561428       1.82684343       0.00000000
Si      -0.52393527       1.48330224      -1.75373946       0.00000000
Si       1.35366642      -1.76275719      -0.83035527       0.00000000
Si       1.52070408       1.51715286      -2.76840056       0.00000000
Si       3.36619818      -0.57694293      -1.11061005       0.00000000
Si      -2.93039181      -1.97700327      -0.85254755       0.00000000
Si       3.12471522       1.72239057      -0.85368121       0.00000000
Si       0.52377237      -2.21811156      -3.00210652       0.00000000
Si      -2.45205225      -1.18368027       2.74005903       0.00000000
