10
Lattice="16.28999089631971 0.0 0.0 0.0 16.28999089631971 0.0 0.0 0.0 34.35334932831803" Properties=species:S:1:pos:R:3:initial_magmoms:R:1 pbc="T T T"
Si       1.12692591       1.89089433       0.87975541       0.00000000
Si       1.24041834      -2.02650858       0.01693621       0.00000000
Si      -1.87170471      -0.08979048       1.55294402       0.00000000
Si      -0.42800346       0.99390177      -2.23015198       0.00000000
Si      -0.72252666       3.48030963       1.19807373       0.00000000
Si       2.81165400      -1.96838586      -1.72611935       0.00000000
Si      -3.76908246      -0.91476495       0.35023259       0.00000000
Si      -2.54959677       0.29919843      -2.99162874       0.00000000
Si       2.27467044      -2.55365298       2.00376328       0.00000000
Si       2.78055639       2.77412184      -0.61406646       0.00000000
