10
Lattice="16.28999089631971 0.0 0.0 0.0 16.28999089631971 0.0 0.0 0.0 34.35334932831803" Properties=species:S:1:pos:R:3:initial_magmoms:R:1 pbc="T T T"
Si       1.32273171      -0.01469358       1.94532820       0.00000000
Si      -1.12692591      -1.89089433      -0.87975541       0.00000000
Si       1.65363048       0.88322751      -1.49382188       0.00000000
Si      -1.84945257       1.58941530       0.31831831       0.00000000
Si       0.34814988       2.75260275      -2.04065880       0.00000000
Si      -1.55492937      -0.89699256      -3.10990739       0.00000000
Si      -1.63359378       1.53310077      -2.83738212       0.00000000
Si      -2.99863062      -1.98068481       0.67318861       0.00000000
Si      -0.56360142       3.61810674       0.00955024       0.00000000
Si       1.18732923      -2.44625301       2.61449747       0.00000000
