10
Lattice="16.28999089631971 0.0 0.0 0.0 16.28999089631971 0.0 0.0 0.0 34.35334932831803" Properties=species:S:1:pos:R:3:initial_magmoms:R:1 pbc="T T T"
Si       1.37173203      -1.26952857       1.41396404       0.00000000
Si      -1.79374077      -1.05352317      -1.18277411       0.00000000
Si       1.30194567       1.42457679      -1.44478386       0.00000000
Si      -1.33690401       1.45287981       1.40441724       0.00000000
Si      -3.32089569       0.87881292      -1.17954249       0.00000000
Si       2.82553308      -2.54889630       0.03029624       0.00000000
Si       0.00257382      -2.61975780       2.77045832       0.00000000
Si      -2.70954828       0.09329283       2.76970255       0.00000000
Si      -2.65525371       2.83020246      -0.00657180       0.00000000
Si       2.72069064       0.09588294       2.77300047       0.00000000
