10
Lattice="16.28999089631971 0.0 0.0 0.0 16.28999089631971 0.0 0.0 0.0 34.35334932831803" Properties=species:S:1:pos:R:3:initial_magmoms:R:1 pbc="T T T"
Si      -1.35783666      -1.35547461      -1.35733594       0.00000000
Si       1.35654975      -1.35767376       1.35699241       0.00000000
Si       1.35702216       1.35875379      -1.35695806       0.00000000
Si      -1.35865116       1.35783998       1.35733594       0.00000000
Si      -0.00149868      -2.71402803       2.71367564       0.00000000
Si      -0.00234576       2.71369150       2.71412223       0.00000000
Si       2.71406061      -0.00192222       2.71446577       0.00000000
Si       2.71415835      -2.71484253      -0.00051530       0.00000000
Si      -0.00004887       2.71339176      -2.71563378       0.00000000
Si       2.71456560       2.71449785      -0.00027483       0.00000000
