10
Lattice="16.28999089631971 0.0 0.0 0.0 16.28999089631971 0.0 0.0 0.0 34.35334932831803" Properties=species:S:1:pos:R:3:initial_magmoms:R:1 pbc="T T T"
Si       1.46492712      -1.24325280      -1.35499991       0.00000000
Si      -1.27342188       1.45935594      -1.37045893       0.00000000
Si       0.72339003       1.84373478       1.38430334       0.00000000
Si      -0.97648776      -1.76541246       1.40137696       0.00000000
Si      -1.18021050       1.27237932       3.23832028       0.00000000
Si       0.08591346      -2.58590718      -2.72174868       0.00000000
Si      -2.62490544       0.12540042      -2.72868806       0.00000000
Si       2.68612326       2.69886204       0.02816976       0.00000000
Si       2.72818404      -2.68807806       0.15902174       0.00000000
Si      -2.73059496       2.73906576      -0.04239206       0.00000000
