10
Lattice="16.28999089631971 0.0 0.0 0.0 16.28999089631971 0.0 0.0 0.0 34.35334932831803" Properties=species:S:1:pos:R:3:initial_magmoms:R:1 pbc="T T T"
Si      -0.98619660       1.95811894       0.66566522       0.00000000
Si       2.26797525       0.36773046       0.12185140       0.00000000
Si      -0.23291442      -1.89006354       1.32621179       0.00000000
Si      -0.67763142      -0.53476812      -2.20974608       0.00000000
Si      -2.96500806       1.53729774      -0.45930454       0.00000000
Si      -0.17340705      -3.38426379      -0.49475721       0.00000000
Si       3.18375018      -1.39945761      -1.04155978       0.00000000
Si       2.49691491       2.45846792      -0.95162266       0.00000000
Si      -1.66979016      -2.64225429      -2.10242615       0.00000000
Si      -2.23909308       1.09802063      -2.84408103       0.00000000
