10
Lattice="16.28999089631971 0.0 0.0 0.0 16.28999089631971 0.0 0.0 0.0 34.35334932831803" Properties=species:S:1:pos:R:3:initial_magmoms:R:1 pbc="T T T"
Si       1.22476365       1.03759155       1.70066351       0.00000000
Si      -0.47750877      -2.27090745       0.36881776       0.00000000
Si       1.60992441       0.10301796      -1.71571028       0.00000000
Si      -2.04374340       1.07970120       0.57923215       0.00000000
Si      -1.56831975      -2.55464667      -1.75071637       0.00000000
Si      -2.21112315       0.08327448       2.73902843       0.00000000
Si      -1.87984971      -2.22773895       2.25344356       0.00000000
Si       3.67445385      -0.20839797      -0.56002861       0.00000000
Si      -0.16874811       1.03234617       3.61170705       0.00000000
Si       3.31312536      -0.05491359       1.77888613       0.00000000
