10
Lattice="16.28999089631971 0.0 0.0 0.0 16.28999089631971 0.0 0.0 0.0 34.35334932831803" Properties=species:S:1:pos:R:3:initial_magmoms:R:1 pbc="T T T"
Si      -1.22476365      -1.03759155      -1.70066351       0.00000000
Si       2.08836171      -1.09250514       0.07822262       0.00000000
Si      -1.39351176      -0.00524538       1.91104354       0.00000000
Si       0.80352054       2.21048037      -0.46991973       0.00000000
Si      -3.26850705       0.04210965      -1.12143136       0.00000000
Si       0.88710453       2.86261305       1.79997910       0.00000000
Si       2.44969020      -1.24598952      -2.26069212       0.00000000
Si       0.38516076      -0.93457359      -3.41637379       0.00000000
Si      -1.27255851       2.32213203       2.47234323       0.00000000
Si       3.55592781       0.52424478       0.87625137       0.00000000
