10
Lattice="16.28999089631971 0.0 0.0 0.0 16.28999089631971 0.0 0.0 0.0 34.35334932831803" Properties=species:S:1:pos:R:3:initial_magmoms:R:1 pbc="T T T"
Si       0.80830980      -0.71066754      -2.04897231       0.00000000
Si       1.45888353       1.32739621       1.37326358       0.00000000
Si      -1.30194567      -1.42457679       1.44478386       0.00000000
Si      -0.88650180       1.92239009      -1.24022531       0.00000000
Si      -2.30971023       0.68963293      -2.60017211       0.00000000
Si       2.55231720      -2.20317363      -1.83763039       0.00000000
Si      -2.63884968       0.02830302       2.84920109       0.00000000
Si       0.06978636      -2.69410536       2.85874789       0.00000000
Si       0.05942592       2.74299884       2.82382769       0.00000000
Si       2.77223220       0.01888011       2.84421642       0.00000000
