10
Lattice="16.28999089631971 0.0 0.0 0.0 16.28999089631971 0.0 0.0 0.0 34.35334932831803" Properties=species:S:1:pos:R:3:initial_magmoms:R:1 pbc="T T T"
Si       1.31334867      -1.30851610       1.47095284       0.00000000
Si       1.80771759       1.06924465      -1.12775341       0.00000000
Si      -1.45888353      -1.32739621      -1.37326358       0.00000000
Si      -1.39945761       1.41560263       1.45056412       0.00000000
Si      -2.34538533       0.59499388      -2.61348889       0.00000000
Si       2.78673030      -2.52238174       0.02379658       0.00000000
Si      -0.04013856      -2.65609006       2.84452075       0.00000000
Si      -2.76082920      -2.75197300       0.07152028       0.00000000
Si       2.67309126       0.05510255       2.84177248       0.00000000
Si       2.78159895       2.76522913       0.13730011       0.00000000
