10
Lattice="16.28999089631971 0.0 0.0 0.0 16.28999089631971 0.0 0.0 0.0 34.35334932831803" Properties=species:S:1:pos:R:3:initial_magmoms:R:1 pbc="T T T"
Si       0.73785555      -1.36544183      -1.71639735       0.00000000
Si       1.15061157       2.02311342       0.03449078       0.00000000
Si       0.42316533      -1.52431820       1.76624409       0.00000000
Si      -2.32924194       0.16191739       0.42007299       0.00000000
Si      -1.04440077      -3.14106812       0.96821534       0.00000000
Si      -2.24565795       0.81405007       2.68997182       0.00000000
Si       0.68147586       2.77978392       2.21750994       0.00000000
Si      -0.68307228      -3.29455250      -1.37069940       0.00000000
Si      -0.51468255      -0.48475556       3.64265943       0.00000000
Si      -0.24671205      -0.72534257      -3.73074147       0.00000000
