10
Lattice="16.28999089631971 0.0 0.0 0.0 16.28999089631971 0.0 0.0 0.0 34.35334932831803" Properties=species:S:1:pos:R:3:initial_magmoms:R:1 pbc="T T T"
Si      -2.16969768      -0.47514672      -0.80589567       0.00000000
Si       0.22108788      -1.47242052       1.85262945       0.00000000
Si       2.13822540      -0.49396167      -0.98903348       0.00000000
Si       0.79931772       2.41852743       0.38585704       0.00000000
Si       1.19496924       0.22356396       3.11768297       0.00000000
Si       3.09348144       1.56287889      -0.46236199       0.00000000
Si       2.56215198       1.70916309       1.81795591       0.00000000
Si      -3.24052083       1.68285474      -0.48225259       0.00000000
Si      -1.79483220      -1.38113136      -2.99310594       0.00000000
Si       0.82521882       3.16138401      -1.89393556       0.00000000
