10
Lattice="16.28999089631971 0.0 0.0 0.0 16.28999089631971 0.0 0.0 0.0 34.35334932831803" Properties=species:S:1:pos:R:3:initial_magmoms:R:1 pbc="T T T"
Si      -1.27998675       1.25304309      -1.62628847       0.00000000
Si       0.66396411       1.85805369       1.63226595       0.00000000
Si      -1.93004083      -0.95172696       1.39519336       0.00000000
Si       1.41147963      -1.45209060      -1.59739728       0.00000000
Si       0.61361172      -0.67422681       3.46120494       0.00000000
Si      -2.50906920       2.68333767      -0.24562658       0.00000000
Si       2.59387299       2.64578922      -0.05022462       0.00000000
Si      -2.61835067      -2.79634140      -0.15823162       0.00000000
Si      -3.55283990       1.05691149       1.14527260       0.00000000
Si       2.75789700      -2.82980106      -0.15019293       0.00000000
