10
Lattice="16.28999089631971 0.0 0.0 0.0 16.28999089631971 0.0 0.0 0.0 34.35334932831803" Properties=species:S:1:pos:R:3:initial_magmoms:R:1 pbc="T T T"
Si       1.04377069       1.62642618      -1.39089918       0.00000000
Si       0.06129927       1.51096266       1.98126182       0.00000000
Si      -1.84318092      -1.11998637      -1.27399467       0.00000000
Si       1.62279907      -2.00863845       0.24992076       0.00000000
Si      -0.01405827      -2.41557894       2.12568338       0.00000000
Si       2.27285315       0.19613160      -2.77156107       0.00000000
Si      -0.46799541      -2.52196893      -2.75417826       0.00000000
Si      -2.30687577      -1.58514732       2.55960078       0.00000000
Si       3.55283990      -1.05691149      -1.14527260       0.00000000
Si       2.75702453       2.76315867       0.14308178       0.00000000
