10
Lattice="16.28999089631971 0.0 0.0 0.0 16.28999089631971 0.0 0.0 0.0 34.35334932831803" Properties=species:S:1:pos:R:3:initial_magmoms:R:1 pbc="T T T"
Si       0.84137850       2.15148546      -0.45600661       0.00000000
Si      -2.14661475       0.54231039       0.80410930       0.00000000
Si       1.53421893      -0.70550361       1.79719647       0.00000000
Si      -0.06129927      -1.51096266      -1.98126182       0.00000000
Si      -2.01673458      -0.96415623       2.55565014       0.00000000
Si       2.69572526       1.25219601      -1.83818004       0.00000000
Si       0.98247142       0.11546352      -3.37216101       0.00000000
Si       0.42551109       3.18093201       1.82553800       0.00000000
Si      -1.85054400       2.59139691       1.93038448       0.00000000
Si       0.89186335      -2.97662283       2.10125814       0.00000000
