10
Lattice="16.28999089631971 0.0 0.0 0.0 16.28999089631971 0.0 0.0 0.0 34.35334932831803" Properties=species:S:1:pos:R:3:initial_magmoms:R:1 pbc="T T T"
Si      -1.35086454      -1.35883035      -1.38073059       0.00000000
Si       1.36223496       1.36159965      -1.37506228       0.00000000
Si       1.50632524      -1.28560680       1.36856950       0.00000000
Si      -1.42615692       1.26086229       1.50268505       0.00000000
Si      -2.68941384       2.70568755      -0.01133661       0.00000000
Si      -2.70329292      -2.69345376       0.00522171       0.00000000
Si       0.05786208       2.46101175       2.91739112       0.00000000
Si      -2.70783783       0.00263898      -2.73937196       0.00000000
Si       2.73540770      -2.71590138      -0.01209239       0.00000000
Si       0.00636939      -2.71090035      -2.74043691       0.00000000
