10
Lattice="16.28999089631971 0.0 0.0 0.0 16.28999089631971 0.0 0.0 0.0 34.35334932831803" Properties=species:S:1:pos:R:3:initial_magmoms:R:1 pbc="T T T"
Si      -0.84137850      -2.15148546       0.45600661       0.00000000
Si       1.85434676      -0.89928945      -1.38217343       0.00000000
Si      -0.41586741       1.02944655       2.28154462       0.00000000
Si      -1.30737024       1.71059661      -1.36733277       0.00000000
Si       0.14109292      -2.03602194      -2.91615439       0.00000000
Si      -2.98799325      -1.60917507       1.26011591       0.00000000
Si      -2.69192250       0.43991145       2.38639110       0.00000000
Si       0.69284043      -2.85698907       2.25320309       0.00000000
Si      -2.79138924       0.51044715      -2.78203884       0.00000000
Si      -0.90267777      -3.66244812      -1.52525521       0.00000000
