10
Lattice="16.28999089631971 0.0 0.0 0.0 16.28999089631971 0.0 0.0 0.0 34.35334932831803" Properties=species:S:1:pos:R:3:initial_magmoms:R:1 pbc="T T T"
Si       1.34485353      -1.21909473       1.46874392       0.00000000
Si       1.19837385       1.94720886       0.54779881       0.00000000
Si      -2.15878338      -0.03759732       1.09460138       0.00000000
Si      -0.44590617      -1.87998003      -2.07439381       0.00000000
Si       1.04878278      -3.26818125       0.34246873       0.00000000
Si      -2.45928501      -0.22589343      -2.45733080       0.00000000
Si       2.72940579       0.05159043      -2.28497995       0.00000000
Si      -3.65516649       0.70441218      -0.51306756       0.00000000
Si       0.44134497      -1.10586294       3.62788748       0.00000000
Si       3.62090862      -0.62955963       1.36389744       0.00000000
