10
Lattice="16.28999089631971 0.0 0.0 0.0 16.28999089631971 0.0 0.0 0.0 34.35334932831803" Properties=species:S:1:pos:R:3:initial_magmoms:R:1 pbc="T T T"
Si      -1.35755647       1.35736719      -1.35750771       0.00000000
Si       1.35702216       1.35793571       1.35757642       0.00000000
Si      -1.35673383      -1.35923044       1.35737030       0.00000000
Si       1.35811359      -1.35825304      -1.35719853       0.00000000
Si      -2.71336733      -0.00012316      -2.71501542       0.00000000
Si      -2.71470981       2.71441704       0.00020612       0.00000000
Si       2.71567332       2.71409124      -0.00024047       0.00000000
Si       0.00094482       2.71617636      -2.71419094       0.00000000
Si       2.71551042      -0.00025653      -2.71498107       0.00000000
Si      -2.71514561      -2.71537294       0.00000000       0.00000000
