10
Lattice="16.28999089631971 0.0 0.0 0.0 16.28999089631971 0.0 0.0 0.0 34.35334932831803" Properties=species:S:1:pos:R:3:initial_magmoms:R:1 pbc="T T T"
Si       1.24929639      -1.43107650       1.37996794       0.00000000
Si      -1.45380105       1.27936773       1.38366780       0.00000000
Si      -1.18154628      -1.42081380      -1.52815605       0.00000000
Si       1.86761592       0.87386076      -1.29876373       0.00000000
Si       0.01827738      -0.75553020      -3.58942687       0.00000000
Si       2.60579727      -0.07234389       2.74201717       0.00000000
Si       2.63217078      -2.74058073      -0.04340548       0.00000000
Si      -2.82553308       2.54889630      -0.03029624       0.00000000
Si      -0.10484244       2.64477924       2.74270424       0.00000000
Si      -2.73411360      -2.68951158      -0.09164448       0.00000000
