10
Lattice="16.28999089631971 0.0 0.0 0.0 16.28999089631971 0.0 0.0 0.0 34.35334932831803" Properties=species:S:1:pos:R:3:initial_magmoms:R:1 pbc="T T T"
Si       0.17814907       0.78837084       2.20916207       0.00000000
Si       2.22043777      -0.27113076      -0.78521494       0.00000000
Si      -0.64235559      -2.27111922       0.30406166       0.00000000
Si      -1.53421893       0.70550361      -1.79719647       0.00000000
Si      -1.94694237      -0.05341491       2.67317302       0.00000000
Si       3.27958099       0.88290171       0.98267811       0.00000000
Si       0.21698769       3.11194386       1.86432296       0.00000000
Si      -3.55095351      -0.25865262       0.75845367       0.00000000
Si       2.26596832      -0.27161946       2.86036452       0.00000000
Si      -0.69284043       2.85698907      -2.25320309       0.00000000
