10
Lattice="16.28999089631971 0.0 0.0 0.0 16.28999089631971 0.0 0.0 0.0 34.35334932831803" Properties=species:S:1:pos:R:3:initial_magmoms:R:1 pbc="T T T"
Si      -1.35241209       1.35633798       1.35682064       0.00000000
Si      -1.35584928      -1.35861858      -1.35702676       0.00000000
Si       1.35868107       1.35645201      -1.35695806       0.00000000
Si       1.35746199      -1.35752715       1.36520287       0.00000000
Si      -0.00711873       2.69110800       2.72741699       0.00000000
Si      -2.69418681      -0.01343925       2.72892854       0.00000000
Si      -2.71362078       2.71191033       0.00054965       0.00000000
Si      -2.71352304      -0.00100998      -2.71443141       0.00000000
Si       0.00153126       2.71391400      -2.71450012       0.00000000
Si       0.00140094      -2.71516833      -2.71391611       0.00000000
