10
Lattice="16.28999089631971 0.0 0.0 0.0 16.28999089631971 0.0 0.0 0.0 34.35334932831803" Properties=species:S:1:pos:R:3:initial_magmoms:R:1 pbc="T T T"
Si       1.46587194      -1.23756759      -1.38468123       0.00000000
Si      -1.23373944       1.51282039      -1.37684866       0.00000000
Si       1.81436391       1.06325874       1.21047529       0.00000000
Si      -1.96273323      -0.85512726       1.35613358       0.00000000
Si      -3.50274096       0.94122384       1.00054186       0.00000000
Si       0.12057858      -2.57233761      -2.75527757       0.00000000
Si      -2.59735905       0.14616519      -2.75252930       0.00000000
Si      -2.68612326      -2.69886204      -0.02816976       0.00000000
Si       2.77298154      -2.62060488       0.08749803       0.00000000
Si       3.49187620      -0.77494788       1.40948436       0.00000000
