10
Lattice="16.28999089631971 0.0 0.0 0.0 16.28999089631971 0.0 0.0 0.0 34.35334932831803" Properties=species:S:1:pos:R:3:initial_magmoms:R:1 pbc="T T T"
Si      -0.04701457      -0.25686072       2.34097594       0.00000000
Si      -0.82604146      -1.97610732      -0.98491108       0.00000000
Si       2.31207228       0.46534014      -0.17499606       0.00000000
Si      -1.57054238       1.73628594      -0.34075106       0.00000000
Si       2.39591691       2.41067565       1.18055351       0.00000000
Si       1.66008132      -1.82184102       2.68148653       0.00000000
Si       1.21365387       1.64502936       3.13185920       0.00000000
Si      -3.18481622      -1.93787469      -0.53556902       0.00000000
Si       3.40646706      -1.01074563       1.30803886       0.00000000
Si       0.41762673      -3.81285369      -0.14713548       0.00000000
