10
Lattice="16.28999089631971 0.0 0.0 0.0 16.28999089631971 0.0 0.0 0.0 34.35334932831803" Properties=species:S:1:pos:R:3:initial_magmoms:R:1 pbc="T T T"
Si       1.35109227      -1.35355239      -1.35596181       0.00000000
Si       1.35461417       1.35775521       1.35682064       0.00000000
Si      -1.35995699      -1.35619137       1.35664888       0.00000000
Si      -1.36197695       1.35764118      -1.35987809       0.00000000
Si       2.70052818      -0.01013238      -2.71993139       0.00000000
Si       2.71168683       2.71414206      -0.00058401       0.00000000
Si       2.71292487       0.00016290       2.71353823       0.00000000
Si       2.71476564      -2.71226871      -0.00257650       0.00000000
Si      -0.00189670      -2.71513575       2.71364129       0.00000000
Si      -0.00267686       2.71542897       2.71360693       0.00000000
