10
Lattice="16.28999089631971 0.0 0.0 0.0 16.28999089631971 0.0 0.0 0.0 34.35334932831803" Properties=species:S:1:pos:R:3:initial_magmoms:R:1 pbc="T T T"
Si      -1.01462265      -1.54287477       1.45726989       0.00000000
Si       1.20651885      -1.39525479      -1.46149536       0.00000000
Si      -1.50139228       1.32840063      -1.43755106       0.00000000
Si       1.53824841       0.67970025       1.82076289       0.00000000
Si       2.37506571      -2.71715571       0.11869089       0.00000000
Si       2.50945821       2.69850366       0.09426564       0.00000000
Si       2.55984318      -0.03446964      -2.82738529       0.00000000
Si      -2.72787648      -2.67960726      -0.07671107       0.00000000
Si       3.34933803      -1.09338480       1.64552635       0.00000000
Si      -0.15420114       2.68309332      -2.82535844       0.00000000
