10
Lattice="16.28999089631971 0.0 0.0 0.0 16.28999089631971 0.0 0.0 0.0 34.35334932831803" Properties=species:S:1:pos:R:3:initial_magmoms:R:1 pbc="T T T"
Si       1.49978772       0.69252048       1.61952085       0.00000000
Si       0.77079393      -2.21776947      -0.12161092       0.00000000
Si      -2.29179937       0.01127268       0.76003393       0.00000000
Si       1.01410137       1.41121899      -1.89819538       0.00000000
Si      -2.33063799      -2.31230034       1.10487304       0.00000000
Si       3.06856359      -1.93499136      -0.43123784       0.00000000
Si       3.65505246       0.21426237       0.44071936       0.00000000
Si      -0.26886645       3.40475661      -1.43548986       0.00000000
Si       1.10508102       2.91864672       2.16993052       0.00000000
Si      -0.24281874      -3.37229064       1.75607549       0.00000000
