10
Lattice="16.28999089631971 0.0 0.0 0.0 16.28999089631971 0.0 0.0 0.0 34.35334932831803" Properties=species:S:1:pos:R:3:initial_magmoms:R:1 pbc="T T T"
Si       2.29776966       0.28277811      -0.30962691       0.00000000
Si      -0.77079393       2.21776947       0.12161092       0.00000000
Si      -1.05914322      -1.15403247      -1.76789305       0.00000000
Si      -1.01361267      -1.15452117       1.87768642       0.00000000
Si      -3.10143192      -0.09453087       1.22648396       0.00000000
Si       0.72899379       2.91028995       1.74113178       0.00000000
Si      -3.27958099      -0.88290171      -0.98267811       0.00000000
Si       0.34686297      -0.40408974       3.73915804       0.00000000
Si       2.69951364      -0.24902523      -2.66441291       0.00000000
Si       2.88425853       2.43203184       0.56233029       0.00000000
