10
Lattice="16.28999089631971 0.0 0.0 0.0 16.28999089631971 0.0 0.0 0.0 34.35334932831803" Properties=species:S:1:pos:R:3:initial_magmoms:R:1 pbc="T T T"
Si       0.62107254      -1.55188314       1.66101972       0.00000000
Si       0.89891478       2.17464984       0.17004917       0.00000000
Si       1.43773911      -0.70884306      -1.74576948       0.00000000
Si      -2.31916820      -0.16047279      -0.47459179       0.00000000
Si      -0.31503231       3.04106607      -1.66610402       0.00000000
Si       0.53722791      -3.49721865       0.30547015       0.00000000
Si       3.54574656       0.12645927      -1.03520441       0.00000000
Si       2.64018546      -0.67906494       2.53448847       0.00000000
Si       1.31988096      -3.03657003      -1.86253658       0.00000000
Si      -3.51573128       1.33345053       0.94313738       0.00000000
