10
Lattice="16.28999089631971 0.0 0.0 0.0 16.28999089631971 0.0 0.0 0.0 34.35334932831803" Properties=species:S:1:pos:R:3:initial_magmoms:R:1 pbc="T T T"
Si      -1.35841178      -1.35614250      -1.35737030       0.00000000
Si       1.35813477      -1.35462753       1.35977503       0.00000000
Si       1.35673383       1.35923044      -1.35737030       0.00000000
Si      -1.35801738       1.36138788       1.36324472       0.00000000
Si       2.71318584      -2.71461447       0.00041224       0.00000000
Si      -0.00112075      -2.71381626      -2.71415659       0.00000000
Si       2.71484742       0.00097740      -2.71456883       0.00000000
Si      -2.71709285      -2.71259451      -0.00041224       0.00000000
Si      -2.71556159       0.00131949      -2.71491236       0.00000000
Si       2.71375599       2.71716615       0.00020612       0.00000000
