10
Lattice="16.28999089631971 0.0 0.0 0.0 16.28999089631971 0.0 0.0 0.0 34.35334932831803" Properties=species:S:1:pos:R:3:initial_magmoms:R:1 pbc="T T T"
Si      -0.71889466      -1.84565700      -1.32198633       0.00000000
Si       0.18776994      -0.74207466       2.37185962       0.00000000
Si      -1.67751229       1.83820662      -0.19900906       0.00000000
Si       2.00719516       0.82531656      -1.29316385       0.00000000
Si      -2.02600426      -0.46261971      -2.79416558       0.00000000
Si      -0.63179657       1.31843182       3.21702120       0.00000000
Si       0.71185997       2.27769779      -2.77753855       0.00000000
Si      -3.49187620       0.77494788      -1.40948436       0.00000000
Si      -0.62661472       3.65185052      -1.32535296       0.00000000
Si      -1.96579642      -3.41184276       0.13607369       0.00000000
