10
Lattice="16.28999089631971 0.0 0.0 0.0 16.28999089631971 0.0 0.0 0.0 34.35334932831803" Properties=species:S:1:pos:R:3:initial_magmoms:R:1 pbc="T T T"
Si      -0.38983503      -2.31213744      -0.30148516       0.00000000
Si      -1.19063514       0.51399837       2.00805745       0.00000000
Si      -0.70851630       1.16014122      -2.00311057       0.00000000
Si       2.32164266       0.23449455       0.68383815       0.00000000
Si       0.31750676      -2.96704431       1.87535039       0.00000000
Si      -0.87905631      -1.47312099       3.29307955       0.00000000
Si       2.67135637       2.52040509       0.92544539       0.00000000
Si      -3.13233798       1.26833940      -1.84443236       0.00000000
Si       0.62479969       3.23231297      -2.18408411       0.00000000
Si      -3.44702820       1.10946303       1.63820908       0.00000000
