10
Lattice="16.28999089631971 0.0 0.0 0.0 16.28999089631971 0.0 0.0 0.0 34.2284985734139" Properties=species:S:1:pos:R:3:initial_magmoms:R:1 pbc="T T T"
Si      -1.35663935      -1.34948411       1.39483948       0.00000000
Si       1.36273995       1.36313550       1.39261463       0.00000000
Si       1.40406768      -1.44328193      -1.44517594       0.00000000
Si      -1.39005665       1.36821310      -1.54633490       0.00000000
Si      -2.68811097       2.71370519       0.03246917       0.00000000
Si      -2.70454280      -2.71269647       0.01040889       0.00000000
Si       2.70966231       2.72142665       0.00600026       0.00000000
Si       2.71072116      -2.72431124       0.04103999       0.00000000
Si       0.00368154      -2.71147472       2.75538883       0.00000000
Si      -2.71218815       0.00559917       2.75573111       0.00000000
