10
Lattice="16.28999089631971 0.0 0.0 0.0 16.28999089631971 0.0 0.0 0.0 34.2284985734139" Properties=species:S:1:pos:R:3:initial_magmoms:R:1 pbc="T T T"
Si      -1.75003470      -0.39239352       1.49606005       0.00000000
Si      -1.17307548       0.68530401      -1.96440886       0.00000000
Si       0.87312771      -2.27641510       0.21714572       0.00000000
Si       2.69742852       0.86573205       1.30023870       0.00000000
Si      -0.37939410      -0.33379839       3.41990812       0.00000000
Si       1.90290006      -0.71721612       2.93160408       0.00000000
Si       1.62719181       2.96829864       1.56311372       0.00000000
Si       0.50357277       1.73040525      -3.28929209       0.00000000
Si      -3.39750756       1.21394709       1.05714777       0.00000000
Si       2.04291261      -2.88960002      -1.77279762       0.00000000
