10
Lattice="16.28999089631971 0.0 0.0 0.0 16.28999089631971 0.0 0.0 0.0 34.2284985734139" Properties=species:S:1:pos:R:3:initial_magmoms:R:1 pbc="T T T"
Si      -1.87642881       1.28568190       0.46102390       0.00000000
Si      -0.70429815      -2.07292256      -0.84147388       0.00000000
Si       0.06253731      -0.23384672       2.33393994       0.00000000
Si       2.07747999       1.32582860      -0.95709781       0.00000000
Si       2.34312102      -0.61446257       2.09430608       0.00000000
Si      -0.54568242       3.20985018       0.32181652       0.00000000
Si      -0.18026514      -1.22212844      -3.16613789       0.00000000
Si      -3.13181766       0.83645420      -1.41456195       0.00000000
Si       0.10010205      -3.44910176       1.19324036       0.00000000
Si       3.59368803       0.76376007       0.77732964       0.00000000
