10
Lattice="16.28999089631971 0.0 0.0 0.0 16.28999089631971 0.0 0.0 0.0 34.2284985734139" Properties=species:S:1:pos:R:3:initial_magmoms:R:1 pbc="T T T"
Si      -1.25538885      -0.44922770      -1.87558586       0.00000000
Si       1.87642881      -1.28568190      -0.46102390       0.00000000
Si       1.33074639       1.92416828      -0.13920738       0.00000000
Si      -1.62414558      -0.60846571       1.71046749       0.00000000
Si       1.93896612      -1.51952861       1.87291603       0.00000000
Si      -3.09185015       1.08595004       1.01169230       0.00000000
Si      -1.42672707      -2.78630417      -1.59316636       0.00000000
Si      -2.27396997      -2.64124172       0.69569462       0.00000000
Si      -0.31672647       3.53050889      -0.57811966       0.00000000
Si      -3.20039204       0.79670480      -1.43212118       0.00000000
