10
Lattice="16.28999089631971 0.0 0.0 0.0 16.28999089631971 0.0 0.0 0.0 34.2284985734139" Properties=species:S:1:pos:R:3:initial_magmoms:R:1 pbc="T T T"
Si      -0.00335574      -1.86780230      -1.42476205       0.00000000
Si       0.75906513       1.63448973      -1.51303740       0.00000000
Si       1.75682763      -0.57191747       1.51327700       0.00000000
Si      -1.92528252       1.00680345       0.99926735       0.00000000
Si       2.27722797      -2.24841815      -1.66439590       0.00000000
Si      -1.07075799       1.60953345       3.11705419       0.00000000
Si      -3.57063768      -0.67999836       0.83264292       0.00000000
Si       0.11038104       3.69927981      -0.55994432       0.00000000
Si       2.90023902       1.33594290       2.02057786       0.00000000
Si      -2.23511832       3.07107225      -0.16491300       0.00000000
