10
Lattice="16.28999089631971 0.0 0.0 0.0 16.28999089631971 0.0 0.0 0.0 34.2284985734139" Properties=species:S:1:pos:R:3:initial_magmoms:R:1 pbc="T T T"
Si       0.88000209       0.79220551      -1.98669162       0.00000000
Si      -1.52308242       1.30962640       1.20190017       0.00000000
Si      -1.61991018      -1.57049514      -0.70959140       0.00000000
Si       1.51044138      -0.82390815       1.65156021       0.00000000
Si      -1.70378739      -2.35161693       1.46470673       0.00000000
Si      -1.94758353       2.97365642      -0.38291443       0.00000000
Si      -2.79521739      -0.39769659       2.21739183       0.00000000
Si       2.02341348       2.70006587      -1.47939076       0.00000000
Si       0.57267495      -3.09110148       1.92316350       0.00000000
Si      -0.27448650       2.42660564       2.82138826       0.00000000
