10
Lattice="16.28999089631971 0.0 0.0 0.0 16.28999089631971 0.0 0.0 0.0 34.2284985734139" Properties=species:S:1:pos:R:3:initial_magmoms:R:1 pbc="T T T"
Si       1.16999667      -1.50638517       1.31134586       0.00000000
Si      -1.40750487      -1.35726651      -1.25192036       0.00000000
Si      -1.55387052       1.22930856       1.30873080       0.00000000
Si       1.28324475       1.03858524      -1.72633381       0.00000000
Si      -2.34017253       0.29188422      -2.59775765       0.00000000
Si       2.56225410       2.57383629      -0.35998817       0.00000000
Si       2.50942563      -0.13266576       2.67163507       0.00000000
Si      -0.43707699       1.87924698      -3.14041656       0.00000000
Si      -0.20906586       2.58015681       2.66971827       0.00000000
Si       2.43937863      -2.98286190      -0.13856731       0.00000000
