10
Lattice="16.28999089631971 0.0 0.0 0.0 16.28999089631971 0.0 0.0 0.0 34.2284985734139" Properties=species:S:1:pos:R:3:initial_magmoms:R:1 pbc="T T T"
Si      -1.14198343      -1.39707927      -1.65046490       0.00000000
Si      -1.08864636       1.58799807       1.64183931       0.00000000
Si       0.18317291      -1.93398138       1.62859287       0.00000000
Si       1.62931114       1.22116356      -1.53597050       0.00000000
Si      -1.71288277      -3.46795041      -0.34012878       0.00000000
Si      -3.52203388       1.38836412       1.23304812       0.00000000
Si       2.12817610      -3.17991388       1.18512820       0.00000000
Si       3.06683848       0.79982271       2.48259439       0.00000000
Si      -2.48063047       0.01992267      -3.18427900       0.00000000
Si      -0.03879138       3.87824175       1.36742928       0.00000000
