10
Lattice="16.28999089631971 0.0 0.0 0.0 16.28999089631971 0.0 0.0 0.0 34.2284985734139" Properties=species:S:1:pos:R:3:initial_magmoms:R:1 pbc="T T T"
Si      -1.35599589      -1.35622395      -1.35791375       0.00000000
Si       1.36036161      -1.35472527       1.35856410       0.00000000
Si       1.35928647       1.35938421      -1.35822181       0.00000000
Si      -1.35676152       1.36158336       1.36044666       0.00000000
Si       0.00149868      -2.71331127      -2.71589597       0.00000000
Si      -2.71307344       0.00148239      -2.71613557       0.00000000
Si      -2.71416487       2.71564074      -0.00013691       0.00000000
Si      -2.71509340      -2.71577106      -0.00147183       0.00000000
Si       2.71653669       0.00171045      -2.71586174       0.00000000
Si       0.00216657       2.71666701      -2.71579328       0.00000000
