10
Lattice="16.28999089631971 0.0 0.0 0.0 16.28999089631971 0.0 0.0 0.0 34.2284985734139" Properties=species:S:1:pos:R:3:initial_magmoms:R:1 pbc="T T T"
Si       0.62204994       1.84598280      -1.48931703       0.00000000
Si      -1.95672222      -0.88637148      -1.19950417       0.00000000
Si       1.70523720      -1.83635541      -0.20249591       0.00000000
Si       0.44312058       0.87337206       2.57316305       0.00000000
Si      -0.51919488      -1.30771233       2.81906072       0.00000000
Si      -0.64345500      -2.09611575      -2.87184109       0.00000000
Si       2.09148939       0.63891009      -2.88258885       0.00000000
Si       1.88213031       2.79091683       1.70071236       0.00000000
Si       3.38188545      -0.79125417      -1.52737915       0.00000000
Si       0.69325353      -3.53079234      -1.54014638       0.00000000
