10
Lattice="16.28999089631971 0.0 0.0 0.0 16.28999089631971 0.0 0.0 0.0 34.2284985734139" Properties=species:S:1:pos:R:3:initial_magmoms:R:1 pbc="T T T"
Si      -1.29039606       1.43016426      -1.35520970       0.00000000
Si       1.42157943      -1.31828454      -1.34925394       0.00000000
Si      -1.67664825      -1.04510124       1.32488323       0.00000000
Si       1.72436166       1.07396712       1.24646570       0.00000000
Si      -0.50357277      -1.73040525       3.28929209       0.00000000
Si      -2.64556116       0.06162507      -2.71880539       0.00000000
Si      -3.38188545       0.79125417       1.52737915       0.00000000
Si       0.07095924      -2.65424373      -2.72267321       0.00000000
Si      -2.75983551       2.63723697       0.03806211       0.00000000
Si       3.43787418      -0.82780893       1.44037025       0.00000000
