10
Lattice="16.28999089631971 0.0 0.0 0.0 16.28999089631971 0.0 0.0 0.0 34.2284985734139" Properties=species:S:1:pos:R:3:initial_magmoms:R:1 pbc="T T T"
Si      -1.09858131      -0.69643008      -1.96060949       0.00000000
Si      -0.00814500      -2.08984410       1.14073381       0.00000000
Si       2.12491647       0.86814297      -0.72170830       0.00000000
Si      -1.04695830       1.92129147       1.00248483       0.00000000
Si       0.90082071      -1.28376603       3.12831538       0.00000000
Si      -1.64519226       1.21275792      -3.15983984       0.00000000
Si      -3.21164029       2.02725792       0.00386782       0.00000000
Si       3.22255296       1.48460544       1.35517547       0.00000000
Si       1.23681825      -3.66365358      -0.07547388       0.00000000
Si       3.47045418      -0.85647933      -1.67500674       0.00000000
