10
Lattice="16.28999089631971 0.0 0.0 0.0 16.28999089631971 0.0 0.0 0.0 34.2284985734139" Properties=species:S:1:pos:R:3:initial_magmoms:R:1 pbc="T T T"
Si       1.00359432       0.46136538       2.03437195       0.00000000
Si       1.01278188      -2.00557593      -0.64407802       0.00000000
Si       0.17353737       1.95092298      -1.27579954       0.00000000
Si      -2.14819488      -0.81744849       0.49734036       0.00000000
Si      -0.88633890       3.13321860       0.49645042       0.00000000
Si      -1.22409576      -2.35519191       2.03009338       0.00000000
Si       0.37908459      -2.25798948      -2.89922391       0.00000000
Si       3.26847447       0.78393996       1.60076509       0.00000000
Si      -0.92409912       1.33446051      -3.35268331       0.00000000
Si       0.46934748       2.72341107       2.51603565       0.00000000
