10
Lattice="16.28999089631971 0.0 0.0 0.0 16.28999089631971 0.0 0.0 0.0 34.2284985734139" Properties=species:S:1:pos:R:3:initial_magmoms:R:1 pbc="T T T"
Si       0.93266766      -1.64915073       1.34583729       0.00000000
Si      -1.79354529       0.89274087       1.21056499       0.00000000
Si      -1.23706260      -1.46349360      -1.54945654       0.00000000
Si       1.90309554       1.58736276      -0.54265892       0.00000000
Si       0.43658829       1.51666416      -3.03908163       0.00000000
Si       2.34017253      -0.29188422       2.59775765       0.00000000
Si      -1.21523400       2.80875438      -1.72344009       0.00000000
Si      -0.49694274       2.36670894       2.54732535       0.00000000
Si       1.95395292      -3.07108854      -0.26770124       0.00000000
Si      -3.10829653       2.04618690      -0.42255105       0.00000000
