10
Lattice="16.28999089631971 0.0 0.0 0.0 16.28999089631971 0.0 0.0 0.0 34.2284985734139" Properties=species:S:1:pos:R:3:initial_magmoms:R:1 pbc="T T T"
Si      -0.06011010      -2.07435231       1.14018615       0.00000000
Si       1.38380292      -0.18318105      -2.00164949       0.00000000
Si      -2.18380482       1.05380010       0.39527092       0.00000000
Si       0.44119836      -0.32635386       2.77754153       0.00000000
Si       2.77661421       0.94069863      -0.52739300       0.00000000
Si      -1.36849032       2.36695329      -2.03146253       0.00000000
Si      -2.46635487      -0.37268262       2.51678868       0.00000000
Si       0.14561631       1.19262348      -3.44557951       0.00000000
Si      -0.97257816       3.22789608       1.53415639       0.00000000
Si      -1.32019047      -3.01928634      -2.04984324       0.00000000
