10
Lattice="16.28999089631971 0.0 0.0 0.0 16.28999089631971 0.0 0.0 0.0 34.2284985734139" Properties=species:S:1:pos:R:3:initial_magmoms:R:1 pbc="T T T"
Si      -0.31597713      -1.75576878      -1.54350078       0.00000000
Si      -0.02958264       2.08202490      -1.14898288       0.00000000
Si      -2.09883618      -0.44689986       1.14672380       0.00000000
Si       1.98682614       0.40850433       1.40022020       0.00000000
Si      -0.10999008      -3.53240505       0.07858868       0.00000000
Si       3.41464464       1.07530290      -0.35392287       0.00000000
Si      -1.85590341       0.90896571       2.98784154       0.00000000
Si       2.18372337       2.32828083      -1.82513302       0.00000000
Si      -2.57715945      -1.31797503      -2.28009848       0.00000000
Si       0.98764641      -2.91594258       2.15547245       0.00000000
