10
Lattice="16.28999089631971 0.0 0.0 0.0 16.28999089631971 0.0 0.0 0.0 34.2284985734139" Properties=species:S:1:pos:R:3:initial_magmoms:R:1 pbc="T T T"
Si      -0.17353737      -1.95092298       1.27579954       0.00000000
Si      -1.05987627       1.18229562       1.77224996       0.00000000
Si       2.02971771       1.26249129      -0.05137701       0.00000000
Si      -1.09763649      -0.61646247      -2.07688377       0.00000000
Si       0.99917973       3.32444691      -0.75525224       0.00000000
Si       0.83005695      -1.48955760       3.31017149       0.00000000
Si      -0.98764641       2.91594258      -2.15547245       0.00000000
Si      -3.22255296      -1.48460544      -1.35517547       0.00000000
Si       3.16509813       0.55166085      -2.02697859       0.00000000
Si       0.24790122      -2.34108477      -3.03018222       0.00000000
