10
Lattice="16.28999089631971 0.0 0.0 0.0 16.28999089631971 0.0 0.0 0.0 34.2284985734139" Properties=species:S:1:pos:R:3:initial_magmoms:R:1 pbc="T T T"
Si       1.19847159       0.88321122      -1.87096501       0.00000000
Si      -1.65182229       1.29209022       1.31564153       0.00000000
Si       2.55415797       0.47340369       0.14862022       0.00000000
Si      -1.87955649      -1.97555346      -0.79512847       0.00000000
Si       1.46650725       0.07069860       2.49642271       0.00000000
Si      -2.84337063       0.04660569      -1.71673131       0.00000000
Si      -0.43658829      -1.51666416       3.03908163       0.00000000
Si       3.08840481      -1.78864200      -0.33304348       0.00000000
Si      -0.06338439      -3.06745587      -1.87007506       0.00000000
Si      -2.97413046       2.05698717      -0.45835408       0.00000000
