10
Lattice="16.28999089631971 0.0 0.0 0.0 16.28999089631971 0.0 0.0 0.0 34.2284985734139" Properties=species:S:1:pos:R:3:initial_magmoms:R:1 pbc="T T T"
Si       0.84965382       1.84731925       1.21490803       0.00000000
Si      -1.88011035      -0.89862156       1.17659605       0.00000000
Si       1.54859256      -1.84948515       0.10371754       0.00000000
Si       2.16613017       0.54624643       2.65669877       0.00000000
Si      -0.57345687      -2.17965087       2.66281198       0.00000000
Si       2.06907435       3.14536184      -0.36835057       0.00000000
Si       3.44349423      -0.91976598       1.26891379       0.00000000
Si      -3.01294953      -2.38902624      -0.37601776       0.00000000
Si       1.20541113       0.41718690      -3.68608657       0.00000000
Si       0.77784750      -3.61673838       1.37622019       0.00000000
