10
Lattice="16.28999089631971 0.0 0.0 0.0 16.28999089631971 0.0 0.0 0.0 34.2284985734139" Properties=species:S:1:pos:R:3:initial_magmoms:R:1 pbc="T T T"
Si       1.35617508       1.35594702       1.35822181       0.00000000
Si       1.35682668      -1.35726651      -1.35681844       0.00000000
Si      -1.35821133      -1.35617508       1.35729764       0.00000000
Si      -1.35780408       1.35767376      -1.35702381       0.00000000
Si       0.00011403      -2.71244790      -2.71408185       0.00000000
Si      -0.00081450       2.71413189      -2.71469797       0.00000000
Si       2.71450044      -0.00097740      -2.71438991       0.00000000
Si       2.71472850      -2.71469592       0.00013691       0.00000000
Si      -2.71495656      -2.71453302      -0.00020537       0.00000000
Si      -2.71472850      -0.00167787      -2.71476642       0.00000000
