10
Lattice="16.28999089631971 0.0 0.0 0.0 16.28999089631971 0.0 0.0 0.0 34.2284985734139" Properties=species:S:1:pos:R:3:initial_magmoms:R:1 pbc="T T T"
Si      -1.35671265      -1.35518139      -1.35726341       0.00000000
Si      -1.35682668       1.35726651       1.35681844       0.00000000
Si       1.35767376       1.35628911      -1.35757147       0.00000000
Si       1.35790182      -1.35742941       1.35695536       0.00000000
Si      -2.71407690       0.00009774      -2.71059055       0.00000000
Si       2.71410948      -0.00265527       2.71391071       0.00000000
Si      -0.00065160       2.71321353       2.71504025       0.00000000
Si      -2.71401174      -2.71497285      -0.00058188       0.00000000
Si      -2.71503801       0.00109143       2.71411608       0.00000000
Si      -2.71463076       2.71494027      -0.00020537       0.00000000
