10
Lattice="16.28999089631971 0.0 0.0 0.0 16.28999089631971 0.0 0.0 0.0 34.2284985734139" Properties=species:S:1:pos:R:3:initial_magmoms:R:1 pbc="T T T"
Si      -2.24948610      -0.48114144      -0.21112150       0.00000000
Si       0.91769715      -0.60789393       2.05330032       0.00000000
Si       1.05415848      -1.15672032      -1.75540953       0.00000000
Si       1.01659374       2.05853472      -0.61470995       0.00000000
Si       3.21613470      -0.63065106      -0.98430948       0.00000000
Si       3.13100316      -0.36163800       1.37715018       0.00000000
Si      -3.12316767      -0.24053814       1.93743679       0.00000000
Si       0.27686484       0.99171891       3.60042932       0.00000000
Si      -2.46532860      -2.70532917      -0.87761919       0.00000000
Si      -3.19634235       0.93682161      -1.79193136       0.00000000
