10
Lattice="16.28999089631971 0.0 0.0 0.0 16.28999089631971 0.0 0.0 0.0 34.2284985734139" Properties=species:S:1:pos:R:3:initial_magmoms:R:1 pbc="T T T"
Si      -0.33497127      -2.17552950       0.84838804       0.00000000
Si       2.09626236       0.98795592      -0.52431243       0.00000000
Si      -1.36876888      -0.42411015      -1.96584646       0.00000000
Si      -0.62274064       1.29707496       1.98453523       0.00000000
Si      -2.69596961      -1.59402537       0.86160025       0.00000000
Si      -3.54886514      -0.34691184      -1.08531784       0.00000000
Si       3.00522807       1.79403399       1.46326913       0.00000000
Si       3.34122561      -0.58585356      -1.74052013       0.00000000
Si      -1.13357386       1.47701430      -3.33813619       0.00000000
Si      -1.25988000      -0.25342353       3.69948665       0.00000000
