10
Lattice="16.28999089631971 0.0 0.0 0.0 16.28999089631971 0.0 0.0 0.0 34.2284985734139" Properties=species:S:1:pos:R:3:initial_magmoms:R:1 pbc="T T T"
Si       0.08387721       0.78112179      -2.17429813       0.00000000
Si      -1.10161125      -1.99155024       0.41539729       0.00000000
Si      -1.09143000       1.95392034       0.75268510       0.00000000
Si       2.27646234      -0.73948455       0.45845677       0.00000000
Si       0.79987158      -2.35181988       1.70037007       0.00000000
Si       1.70378739       2.35161693      -1.46470673       0.00000000
Si       3.21422877       1.52770878       0.18685348       0.00000000
Si      -2.76957693      -1.45308429       1.84964064       0.00000000
Si      -0.68593932       1.80657729       3.09545600       0.00000000
Si      -2.20915206       1.31556411      -2.60133312       0.00000000
