10
Lattice="16.28999089631971 0.0 0.0 0.0 16.28999089631971 0.0 0.0 0.0 34.2284985734139" Properties=species:S:1:pos:R:3:initial_magmoms:R:1 pbc="T T T"
Si       1.35267273      -1.35391685       1.35757147       0.00000000
Si      -1.34382726      -1.35723585      -1.36388321       0.00000000
Si       1.34483724       1.35186963      -1.37089321       0.00000000
Si      -1.35931905       1.36179024       1.35654461       0.00000000
Si      -0.07159455       2.58288864      -2.80996278       0.00000000
Si       2.71288773      -2.70848521      -0.00030806       0.00000000
Si      -0.00332316      -2.71083097       2.71442414       0.00000000
Si       2.71171485       0.00352353       2.71391071       0.00000000
Si      -2.71761183      -2.71159660      -0.00297788       0.00000000
Si       2.71386513       2.71780242      -0.00547656       0.00000000
