10
Lattice="16.28999089631971 0.0 0.0 0.0 16.28999089631971 0.0 0.0 0.0 34.2284985734139" Properties=species:S:1:pos:R:3:initial_magmoms:R:1 pbc="T T T"
Si       1.35521397      -1.35536058       1.35685267       0.00000000
Si      -1.33942896      -1.37371941      -1.36028921       0.00000000
Si      -1.35993807       1.35759231       1.35688690       0.00000000
Si       1.33594290       1.36399428      -1.38068941       0.00000000
Si      -2.50942563       0.13266576      -2.67163507       0.00000000
Si       2.66512545      -0.02046024      -2.73037463       0.00000000
Si       2.71339272       0.00091224       2.71401340       0.00000000
Si      -0.00171045      -2.71386513       2.71370534       0.00000000
Si       2.71318095       2.71523349      -0.00397051       0.00000000
Si      -0.00146610       2.71551042       2.71363688       0.00000000
