10
Lattice="16.28999089631971 0.0 0.0 0.0 16.28999089631971 0.0 0.0 0.0 34.2284985734139" Properties=species:S:1:pos:R:3:initial_magmoms:R:1 pbc="T T T"
Si      -1.35521397       1.35536058      -1.35685267       0.00000000
Si       1.35817875       1.35627282       1.35716073       0.00000000
Si      -1.35692442      -1.35850455       1.35685267       0.00000000
Si       1.36019871      -1.35992178      -1.36256883       0.00000000
Si      -2.69464293      -0.01835883      -2.71714188       0.00000000
Si       0.00094482       2.71388142       2.71401340       0.00000000
Si      -2.71515204       2.71295289       0.00003423       0.00000000
Si      -2.71451673      -0.00161271       2.71370534       0.00000000
Si      -2.71298547      -2.71593396      -0.00054766       0.00000000
Si       2.71596654       2.71326240      -0.00030806       0.00000000
