10
Lattice="16.28999089631971 0.0 0.0 0.0 16.28999089631971 0.0 0.0 0.0 34.2284985734139" Properties=species:S:1:pos:R:3:initial_magmoms:R:1 pbc="T T T"
Si       1.83865230       0.94268601      -1.33107860       0.00000000
Si      -0.78363045      -1.99161540      -1.30602332       0.00000000
Si      -1.71351252       1.90177605      -0.19390455       0.00000000
Si       2.36216403       0.89989218       1.65652334       0.00000000
Si      -1.24401843      -0.03686427       3.14916054       0.00000000
Si      -2.01629475      -0.49047561      -2.78962419       0.00000000
Si       0.69717942       2.25044721      -2.83867366       0.00000000
Si       2.44457514       2.79666720       0.08081353       0.00000000
Si      -3.43787418       0.82780893      -1.44037025       0.00000000
Si       1.06984575       0.43411221       3.70400481       0.00000000
