10
Lattice="16.28999089631971 0.0 0.0 0.0 16.28999089631971 0.0 0.0 0.0 34.2284985734139" Properties=species:S:1:pos:R:3:initial_magmoms:R:1 pbc="T T T"
Si      -0.74191176      -1.52155116       1.60846650       0.00000000
Si      -1.23918030      -0.97639002      -1.73401671       0.00000000
Si       2.25505728      -0.71084673      -0.05989991       0.00000000
Si      -0.91342917       2.15782227       0.32825148       0.00000000
Si       0.28774656       2.89989693      -1.76259752       0.00000000
Si      -3.35692917      -0.59054508      -0.58020760       0.00000000
Si      -3.25594746       1.63400103       0.35638733       0.00000000
Si       2.14492059      -2.60798013      -1.44204745       0.00000000
Si      -0.16894359      -3.07895661      -1.99689172       0.00000000
Si       0.06954201       2.99356443       2.38791831       0.00000000
