10
Lattice="16.28999089631971 0.0 0.0 0.0 16.28999089631971 0.0 0.0 0.0 34.2284985734139" Properties=species:S:1:pos:R:3:initial_magmoms:R:1 pbc="T T T"
Si      -1.07023671       2.10256659       0.26287502       0.00000000
Si      -0.79452846      -1.58294817       1.63136538       0.00000000
Si       2.31386418       0.47097648       0.55484427       0.00000000
Si      -2.69742852      -0.86573205      -1.30023870       0.00000000
Si       1.24401843       0.03686427      -3.14916054       0.00000000
Si       0.16894359       3.07895661       1.99689172       0.00000000
Si      -0.00022806      -0.73104633       3.64157200       0.00000000
Si      -0.30809277      -3.70421568       0.65133446       0.00000000
Si      -1.82430081      -3.14214715      -1.08309299       0.00000000
Si       3.22801011      -1.45977948       1.56379829       0.00000000
