10
Lattice="16.28999089631971 0.0 0.0 0.0 16.28999089631971 0.0 0.0 0.0 34.2284985734139" Properties=species:S:1:pos:R:3:initial_magmoms:R:1 pbc="T T T"
Si       1.32918255      -1.38445452      -1.34968522       0.00000000
Si      -1.33594290      -1.36399428       1.38068941       0.00000000
Si       1.37723805       1.35123921       1.37671890       0.00000000
Si      -1.28311443       1.34250777      -1.65093383       0.00000000
Si       2.43304182       0.36496116      -2.63127588       0.00000000
Si       0.60054714       2.14293321      -3.00591560       0.00000000
Si      -2.65632885       2.68424991       0.01303764       0.00000000
Si      -2.67537186      -2.73771369       0.02040020       0.00000000
Si      -2.69588097      -0.00640197       2.73757631       0.00000000
Si       0.01822851       2.71002069       2.73696020       0.00000000
