10
Lattice="16.28999089631971 0.0 0.0 0.0 16.28999089631971 0.0 0.0 0.0 34.2284985734139" Properties=species:S:1:pos:R:3:initial_magmoms:R:1 pbc="T T T"
Si       0.35220609       0.58202541       2.30546181       0.00000000
Si       1.96390611      -0.73045989      -1.18629197       0.00000000
Si      -1.37230218      -1.94953833       0.40656633       0.00000000
Si      -0.96137064       2.06506701      -0.95785084       0.00000000
Si       0.47464173      -1.81061721      -2.61646212       0.00000000
Si      -2.35418193       0.94118733      -2.43210733       0.00000000
Si       2.73520503       0.72938475       2.41242593       0.00000000
Si      -0.57397815      -3.45818781      -1.27189749       0.00000000
Si      -3.73798485       1.12436838      -0.43045784       0.00000000
Si       0.16089633       2.83475322       2.75258894       0.00000000
