10
Lattice="16.28999089631971 0.0 0.0 0.0 16.28999089631971 0.0 0.0 0.0 34.2284985734139" Properties=species:S:1:pos:R:3:initial_magmoms:R:1 pbc="T T T"
Si       0.91342917      -2.15782227      -0.32825148       0.00000000
Si      -2.34251829      -0.52382124       0.02813584       0.00000000
Si       0.98297118       0.83574216       2.05966682       0.00000000
Si       1.20117573       0.74207466      -2.09084900       0.00000000
Si      -2.44781685       0.95806377      -2.04922713       0.00000000
Si       1.00986597       2.99480247      -1.64372188       0.00000000
Si      -0.32575113      -3.13421229      -2.06226819       0.00000000
Si      -2.44350000      -2.74836735      -0.90845909       0.00000000
Si      -0.89521695       3.66220377      -0.48679798       0.00000000
Si       0.17151741      -3.67937343       1.28021502       0.00000000
