10
Lattice="16.28999089631971 0.0 0.0 0.0 16.28999089631971 0.0 0.0 0.0 34.2284985734139" Properties=species:S:1:pos:R:3:initial_magmoms:R:1 pbc="T T T"
Si       1.13538042      -0.71083044      -1.97560158       0.00000000
Si      -2.02971771      -1.26249129       0.05137701       0.00000000
Si      -1.03053798       2.06195562      -0.70387524       0.00000000
Si       1.27904193      -0.24259068       2.13260780       0.00000000
Si      -3.08959398      -0.08019567       1.82362697       0.00000000
Si       3.33299916      -0.91961937      -1.15678698       0.00000000
Si       0.39728052       2.72875419      -2.45801831       0.00000000
Si       0.60652557      -2.96686512      -2.36135698       0.00000000
Si       0.08032599       1.08870957       3.69205906       0.00000000
Si       1.06521939      -2.42947431       2.92794163       0.00000000
