10
Lattice="16.28999089631971 0.0 0.0 0.0 16.28999089631971 0.0 0.0 0.0 34.2284985734139" Properties=species:S:1:pos:R:3:initial_magmoms:R:1 pbc="T T T"
Si       0.93305862       2.20071384       0.35036311       0.00000000
Si      -1.82588094      -0.38255436      -1.61192358       0.00000000
Si       0.15522741      -0.86895747       2.31247866       0.00000000
Si       1.35299853      -0.89119332      -2.03604915       0.00000000
Si      -0.62716500      -1.71385461      -3.17137485       0.00000000
Si      -2.11449087       1.80131562      -2.44429268       0.00000000
Si      -0.04890258      -3.87561906      -0.16306466       0.00000000
Si       1.82522934       0.90521901      -3.48254631       0.00000000
Si       0.03474657       2.48601690      -3.18883139       0.00000000
Si       0.92942595       1.00235628       3.86624255       0.00000000
