10
Lattice="16.28999089631971 0.0 0.0 0.0 16.28999089631971 0.0 0.0 0.0 34.2284985734139" Properties=species:S:1:pos:R:3:initial_magmoms:R:1 pbc="T T T"
Si       2.13946344      -0.14038722       0.93748487       0.00000000
Si      -0.03772764      -1.60097794      -1.71276080       0.00000000
Si      -0.91414593       1.93075596      -1.00895402       0.00000000
Si      -1.02833883      -0.09005112       2.14349246       0.00000000
Si       1.75689279      -2.01370464       2.34441386       0.00000000
Si       2.35442628       2.11330170       1.66528584       0.00000000
Si      -1.41615486      -3.35555171      -0.99170284       0.00000000
Si      -3.22801011       1.45977948      -1.56379829       0.00000000
Si       0.37817235       2.39653593      -3.05643549       0.00000000
Si      -3.22823817       0.72873315       2.07777371       0.00000000
