10
Lattice="16.28999089631971 0.0 0.0 0.0 16.28999089631971 0.0 0.0 0.0 34.2284985734139" Properties=species:S:1:pos:R:3:initial_magmoms:R:1 pbc="T T T"
Si       0.91619847       1.52865360       1.52221064       0.00000000
Si      -2.19989934       0.81878427      -0.06571875       0.00000000
Si       0.61501266      -1.90275834       1.24139988       0.00000000
Si       1.02833883       0.09005112      -2.14349246       0.00000000
Si       3.16780227      -0.05033610      -1.20600759       0.00000000
Si       2.78523162      -1.92365352       0.20092140       0.00000000
Si       1.39325112       3.32643429       0.16621368       0.00000000
Si       0.48747825      -1.00823697       3.44030831       0.00000000
Si      -2.99419974      -0.03311757      -2.07592537       0.00000000
Si      -3.13532001       0.05175333       1.94599392       0.00000000
