10
Lattice="16.28999089631971 0.0 0.0 0.0 16.28999089631971 0.0 0.0 0.0 34.2284985734139" Properties=species:S:1:pos:R:3:initial_magmoms:R:1 pbc="T T T"
Si       2.18009626      -0.07719831      -0.88052862       0.00000000
Si       0.08089614       2.30213538       0.59619232       0.00000000
Si      -1.80610488      -1.57252257      -0.25736422       0.00000000
Si       0.85289553      -1.24711353       1.94691809       0.00000000
Si      -1.37738466       0.96436800      -2.17546190       0.00000000
Si       2.20717512      -2.24359401      -1.92391652       0.00000000
Si      -3.13222491       1.75308093      -0.85958077       0.00000000
Si       3.54886514       0.34691184       1.08531784       0.00000000
Si       2.41529128       1.82392614      -2.25281835       0.00000000
Si      -3.77598942      -0.35398170      -0.10990777       0.00000000
