10
Lattice="16.28999089631971 0.0 0.0 0.0 16.28999089631971 0.0 0.0 0.0 34.2284985734139" Properties=species:S:1:pos:R:3:initial_magmoms:R:1 pbc="T T T"
Si      -1.35385280      -1.34079732      -1.39580472       0.00000000
Si       1.35417141       1.37868786      -1.39508592       0.00000000
Si      -1.72028006       1.09654506       1.32604700       0.00000000
Si       1.37824803      -1.49436315       1.64971187       0.00000000
Si      -0.28000229       2.40360579       2.56919254       0.00000000
Si       2.69151525      -2.70410742      -0.02262505       0.00000000
Si      -2.73169358      -2.69560404       0.00140337       0.00000000
Si       2.69966025       2.73158865      -0.01437598       0.00000000
Si      -2.72146346       2.73243573      -0.03275669       0.00000000
Si      -0.00416047      -2.69866656      -2.75700442       0.00000000
