10
Lattice="16.28999089631971 0.0 0.0 0.0 16.28999089631971 0.0 0.0 0.0 34.2284985734139" Properties=species:S:1:pos:R:3:initial_magmoms:R:1 pbc="T T T"
Si       1.44027776       1.30706073       1.24314553       0.00000000
Si      -1.00118340       1.63589067      -1.35880370       0.00000000
Si       1.72028006      -1.09654506      -1.32604700       0.00000000
Si      -1.97040582      -0.52693263       1.51697368       0.00000000
Si      -2.57632866      -2.38091382       0.10508155       0.00000000
Si       1.43042557       0.06616998       3.22706465       0.00000000
Si      -2.35589238       0.28142604      -2.72691755       0.00000000
Si       0.36642726      -2.43734238      -2.72185173       0.00000000
Si      -2.42576019       2.92974021       0.04538701       0.00000000
Si      -3.59060922       1.30590414       1.32786112       0.00000000
