10
Lattice="16.28999089631971 0.0 0.0 0.0 16.28999089631971 0.0 0.0 0.0 34.2284985734139" Properties=species:S:1:pos:R:3:initial_magmoms:R:1 pbc="T T T"
Si       1.16892153      -0.59150619       1.93651262       0.00000000
Si      -0.11013669      -1.89713340      -1.38214754       0.00000000
Si      -2.25505728       0.71084673       0.05989991       0.00000000
Si       1.40258529       1.83775635      -0.55255096       0.00000000
Si      -2.99696904      -0.81070443       1.66836641       0.00000000
Si       1.60466274       2.91814173       1.57358764       0.00000000
Si       3.15843552      -1.71458766       1.29209231       0.00000000
Si       1.57364658       1.28091528       3.28573233       0.00000000
Si      -3.49423758      -0.26554329      -1.67411680       0.00000000
Si       1.18218159      -1.43135343      -3.42962902       0.00000000
