10
Lattice="16.28999089631971 0.0 0.0 0.0 16.28999089631971 0.0 0.0 0.0 34.2284985734139" Properties=species:S:1:pos:R:3:initial_magmoms:R:1 pbc="T T T"
Si       0.47705265       1.79778069      -1.35599696       0.00000000
Si      -1.75484025       0.78871293       1.31588113       0.00000000
Si      -0.91619847      -1.52865360      -1.52221064       0.00000000
Si       1.37738466      -0.96436800       2.17546190       0.00000000
Si      -0.42872022      -2.53689057       1.91809767       0.00000000
Si       2.46656664       0.67469922      -2.00041726       0.00000000
Si       1.45828080       1.33776738       2.77165422       0.00000000
Si      -2.39860476      -1.31834970       2.06555413       0.00000000
Si      -0.30118581      -3.43141194      -0.28081076       0.00000000
Si      -3.11609781      -0.70986933      -1.58792939       0.00000000
