10
Lattice="16.28999089631971 0.0 0.0 0.0 16.28999089631971 0.0 0.0 0.0 34.2284985734139" Properties=species:S:1:pos:R:3:initial_magmoms:R:1 pbc="T T T"
Si       1.17156607       1.95800913       0.47611868       0.00000000
Si       1.14522514      -1.67003451      -1.20083909       0.00000000
Si      -1.18917000      -1.19182527       1.64817158       0.00000000
Si      -1.76567310       1.14060951      -1.13025988       0.00000000
Si      -2.17039815      -0.73181196      -2.47947959       0.00000000
Si      -0.18088416      -1.85489343      -3.12389990       0.00000000
Si       3.28462505      -0.76567887      -1.48835864       0.00000000
Si       0.91003012      -3.57115896       0.17145065       0.00000000
Si      -3.33485622      -0.33990714       1.71169971       0.00000000
Si       1.65898404       3.02101308      -1.55691836       0.00000000
