10
Lattice="16.28999089631971 0.0 0.0 0.0 16.28999089631971 0.0 0.0 0.0 34.2284985734139" Properties=species:S:1:pos:R:3:initial_magmoms:R:1 pbc="T T T"
Si      -2.43338751      -0.19963395      -0.40879119       0.00000000
Si       1.08864636      -1.58799807      -1.64183931       0.00000000
Si       0.79031619       0.04942386       2.40722319       0.00000000
Si       1.04985499       2.29024368      -0.27441003       0.00000000
Si      -2.35097640       1.69714107      -1.98450100       0.00000000
Si      -0.01671624       3.29569506       1.65734483       0.00000000
Si       1.27181927      -3.52197945      -0.01324644       0.00000000
Si       1.72058596       2.13358275       2.63272067       0.00000000
Si       2.68638748      -1.28063835       2.70021930       0.00000000
Si      -3.72570579      -0.66541392       1.63869028       0.00000000
