10
Lattice="16.28999089631971 0.0 0.0 0.0 16.28999089631971 0.0 0.0 0.0 34.2284985734139" Properties=species:S:1:pos:R:3:initial_magmoms:R:1 pbc="T T T"
Si      -1.35392706      -1.35477414      -1.35623656       0.00000000
Si       1.35927018      -1.35304740       1.35705804       0.00000000
Si      -1.35275418       1.36163223       1.35698958       0.00000000
Si       1.36024758       1.35954711      -1.35613387       0.00000000
Si      -0.00263898      -2.70762606       2.68146208       0.00000000
Si      -2.71272483      -2.71212210       0.00102686       0.00000000
Si      -2.71155195       0.00221544      -2.71346574       0.00000000
Si      -0.00935046       2.70241326       2.72284435       0.00000000
Si       0.00330687      -2.71238274      -2.71308923       0.00000000
Si      -2.71332756       2.71507059       0.00109531       0.00000000
