10
Lattice="16.28999089631971 0.0 0.0 0.0 16.28999089631971 0.0 0.0 0.0 34.2284985734139" Properties=species:S:1:pos:R:3:initial_magmoms:R:1 pbc="T T T"
Si       0.74117871       0.38195163       2.11652039       0.00000000
Si      -0.93026977      -2.08415889      -0.22549747       0.00000000
Si      -1.73730221       1.16211231      -0.97537584       0.00000000
Si       1.49017662       0.62332056      -1.73832950       0.00000000
Si      -0.67073098       0.15666093      -2.90713069       0.00000000
Si      -1.07357453       3.32325774      -0.29539211       0.00000000
Si       0.96580152      -3.41422110       0.06749864       0.00000000
Si       2.04411807       2.25176670       2.19596478       0.00000000
Si       1.20866913       3.55433139       0.39616086       0.00000000
Si      -2.17771955      -2.61645093       1.68020948       0.00000000
