10
Lattice="16.28999089631971 0.0 0.0 0.0 16.28999089631971 0.0 0.0 0.0 34.2284985734139" Properties=species:S:1:pos:R:3:initial_magmoms:R:1 pbc="T T T"
Si       2.19626757       0.22621923      -0.81094204       0.00000000
Si      -1.40258529      -1.83775635       0.55255096       0.00000000
Si       0.20207745       1.08038538       2.12613861       0.00000000
Si      -0.98689707       1.92034665      -1.04318253       0.00000000
Si      -0.23366376      -2.42926254       2.48906358       0.00000000
Si       2.85999525       2.38736466      -0.13095831       0.00000000
Si       2.05084584       2.54076759       2.06664944       0.00000000
Si      -3.65764257      -1.12690962       0.61245087       0.00000000
Si       0.17106129      -0.55684107       3.83828329       0.00000000
Si      -3.36989601       1.77298731      -1.15014665       0.00000000
