10
Lattice="16.28999089631971 0.0 0.0 0.0 16.28999089631971 0.0 0.0 0.0 34.2284985734139" Properties=species:S:1:pos:R:3:initial_magmoms:R:1 pbc="T T T"
Si       2.27486592      -0.57024774       0.42734304       0.00000000
Si      -0.20746944       1.61873730      -1.74644166       0.00000000
Si      -0.88707195      -2.07751257      -0.87111578       0.00000000
Si      -0.48863484       1.21858974       2.10710755       0.00000000
Si       3.35108499       1.48129857      -0.26109513       0.00000000
Si       1.83998808       2.84053617      -1.50550712       0.00000000
Si      -0.96086565      -0.57782259       3.55360471       0.00000000
Si       0.66876966      -2.69513163      -2.62063800       0.00000000
Si      -2.06079903       3.02275611      -1.51163403       0.00000000
Si      -3.08469069      -1.86872364      -1.68993038       0.00000000
