10
Lattice="16.28999089631971 0.0 0.0 0.0 16.28999089631971 0.0 0.0 0.0 34.2284985734139" Properties=species:S:1:pos:R:3:initial_magmoms:R:1 pbc="T T T"
Si      -0.46799541      -2.33650728      -0.00557925       0.00000000
Si      -1.26464157       0.82409481       1.84899030       0.00000000
Si       2.41899074       0.09163125      -0.00985781       0.00000000
Si      -0.24462693       1.59607791      -1.84604665       0.00000000
Si      -0.09163125      -0.56917260       3.27864703       0.00000000
Si       2.28823091       2.10201273       1.24851941       0.00000000
Si       0.14555115       2.66282856       2.14506698       0.00000000
Si       1.08651598       0.28859364      -3.28764913       0.00000000
Si      -1.27422009      -2.86124076      -2.11559622       0.00000000
Si       1.57100827      -3.51938934       0.35806452       0.00000000
