10
Lattice="16.28999089631971 0.0 0.0 0.0 16.28999089631971 0.0 0.0 0.0 34.2284985734139" Properties=species:S:1:pos:R:3:initial_magmoms:R:1 pbc="T T T"
Si      -1.17156607      -1.95800913      -0.47611868       0.00000000
Si       0.48741798       1.06300395      -2.03303704       0.00000000
Si      -1.33114291       1.30748427       1.44160248       0.00000000
Si       2.16468199      -0.10596645       0.99861700       0.00000000
Si       1.51889752       2.84240952      -0.81402261       0.00000000
Si      -2.93723917      -0.81739962      -1.60637856       0.00000000
Si      -0.25492384       3.35903058       0.75316430       0.00000000
Si      -1.08651598      -0.28859364       3.28764913       0.00000000
Si       1.33247476      -0.19696239       3.27779131       0.00000000
Si       1.56644803      -0.81450000      -3.16370766       0.00000000
