10
Lattice="16.28999089631971 0.0 0.0 0.0 16.28999089631971 0.0 0.0 0.0 34.2284985734139" Properties=species:S:1:pos:R:3:initial_magmoms:R:1 pbc="T T T"
Si       1.34790346       1.36321236       1.38443059       0.00000000
Si      -1.36685666      -1.35575154       1.38631316       0.00000000
Si      -1.50020660       1.32708114      -1.40194190       0.00000000
Si       1.51661410      -1.30579011      -1.42854088       0.00000000
Si      -2.70918524      -2.69886204       0.02046523       0.00000000
Si       2.70454280       2.71269647      -0.01040889       0.00000000
Si       2.71788431      -2.70265761       0.02916270       0.00000000
Si      -2.73428813       2.71779102       0.02627723       0.00000000
Si       2.70822434       0.00122175       2.74497994       0.00000000
Si      -0.00794388      -2.71112841       2.74511685       0.00000000
