10
Lattice="16.28999089631971 0.0 0.0 0.0 16.28999089631971 0.0 0.0 0.0 34.2284985734139" Properties=species:S:1:pos:R:3:initial_magmoms:R:1 pbc="T T T"
Si      -1.35408602       1.35614838      -1.35856410       0.00000000
Si       1.36077347      -1.35874858      -1.35818758       0.00000000
Si      -1.34804243      -1.36280479       1.37126288       0.00000000
Si       1.36522227       1.37099509       1.37718441       0.00000000
Si       2.68056321      -0.08866615       2.70466901       0.00000000
Si      -2.71159688       2.71353055       0.00506582       0.00000000
Si      -2.71125479      -2.71477705       0.00335439       0.00000000
Si      -2.71177607      -0.00091651      -2.71545099       0.00000000
Si       0.00363384       2.71387264      -2.71586174       0.00000000
Si       0.00293735      -2.71536349      -2.71593019       0.00000000
