10
Lattice="16.28999089631971 0.0 0.0 0.0 16.28999089631971 0.0 0.0 0.0 34.2284985734139" Properties=species:S:1:pos:R:3:initial_magmoms:R:1 pbc="T T T"
Si       1.35319401       1.33116993       1.35579159       0.00000000
Si      -1.35821785       1.35492075      -1.35818758       0.00000000
Si       1.35597960      -1.35843939      -1.35842718       0.00000000
Si      -1.34989691      -1.37606517       1.38827445       0.00000000
Si      -0.03842811       2.62500318       2.70466901       0.00000000
Si       2.55262671      -0.18404442       2.77648044       0.00000000
Si       2.71471221       2.71316466       0.00215640       0.00000000
Si      -0.00133578       2.71285205      -2.71582751       0.00000000
Si       2.71419093      -0.00226431      -2.71572482       0.00000000
Si      -2.71605397      -0.00169416      -2.71593019       0.00000000
