10
Lattice="16.28999089631971 0.0 0.0 0.0 16.28999089631971 0.0 0.0 0.0 34.2284985734139" Properties=species:S:1:pos:R:3:initial_magmoms:R:1 pbc="T T T"
Si       2.24948610       0.48114144       0.21112150       0.00000000
Si      -0.94685625       1.41796305      -1.58080986       0.00000000
Si      -0.87368157       0.24060330       2.14855828       0.00000000
Si      -0.21584250      -2.22418773      -0.66649770       0.00000000
Si      -0.29703186       3.45073906      -0.56603700       0.00000000
Si      -3.18501170      -0.00661374       1.57605210       0.00000000
Si       3.30364458      -0.67557888      -1.54428803       0.00000000
Si       0.61960644      -3.52675242       1.13330622       0.00000000
Si      -2.49808616      -2.45526138      -1.35805067       0.00000000
Si      -0.73088343      -1.73965797       3.40354689       0.00000000
