10
Lattice="16.28999089631971 0.0 0.0 0.0 16.28999089631971 0.0 0.0 0.0 34.2284985734139" Properties=species:S:1:pos:R:3:initial_magmoms:R:1 pbc="T T T"
Si      -1.05456573      -1.16364357      -1.72679449       0.00000000
Si       1.68692724      -1.61818344       0.33047634       0.00000000
Si       1.02907188       2.09601801      -0.48097913       0.00000000
Si      -1.89172512       0.21188403       1.55839018       0.00000000
Si       0.41151798      -2.18263194       2.29088046       0.00000000
Si       0.61339995      -1.70210952      -3.16103784       0.00000000
Si       0.62358120       2.24336106      -2.82375002       0.00000000
Si      -3.16764589       1.83115890       0.23737477       0.00000000
Si      -1.77552855      -3.17094624      -0.80854605       0.00000000
Si      -0.90974763      -0.60474996       3.56144304       0.00000000
