10
Lattice="10.86 0.0 0.0 0.0 10.86 0.0 0.0 0.0 10.86" Properties=species:S:1:pos:R:3:initial_magmoms:R:1 pbc="T T T"
Si       2.05709034       0.75450936      -0.98241732       0.00000000
Si       1.79504940       0.12865842       1.84446240       0.00000000
Si       0.52174698      -1.40716278      -2.15764308       0.00000000
Si      -2.19325302      -1.40716278       0.55735692       0.00000000
Si      -2.19325302       1.30783722      -2.15764308       0.00000000
Si       1.87924698      -2.76466278      -0.80014308       0.00000000
Si      -0.83575302      -2.76466278       1.91485692       0.00000000
Si      -0.93110382       2.74571208       1.97492358       0.00000000
Si       3.23674698      -1.40716278       0.55735692       0.00000000
Si       0.52174698      -1.40716278       3.27235692       0.00000000
