10
Lattice="10.86 0.0 0.0 0.0 10.86 0.0 0.0 0.0 10.86" Properties=species:S:1:pos:R:3:initial_magmoms:R:1 pbc="T T T"
Si       1.44169758       1.17917880       1.42789452       0.00000000
Si      -1.27330242      -1.53582120       1.42789452       0.00000000
Si       1.44169758      -1.53582120      -1.28710548       0.00000000
Si      -1.79504940      -0.12865842      -1.84446240       0.00000000
Si       0.26204094       0.62585094      -2.82687972       0.00000000
Si       2.55110088       2.60661720       0.03784710       0.00000000
Si       0.08419758       2.53667880       2.78539452       0.00000000
Si      -2.72615322       2.61705366       0.13046118       0.00000000
Si      -2.63080242      -0.17832120       2.78539452       0.00000000
Si       2.81274000      -0.24555546      -2.67297180       0.00000000
