10
Lattice="10.86 0.0 0.0 0.0 10.86 0.0 0.0 0.0 10.86" Properties=species:S:1:pos:R:3:initial_magmoms:R:1 pbc="T T T"
Si      -1.69230294       1.16033670       0.76413132       0.00000000
Si       0.66437136       1.20966282      -1.79033616       0.00000000
Si      -0.20060592      -2.04053970       1.58075988       0.00000000
Si      -1.80971040      -1.13783478      -1.54480242       0.00000000
Si      -0.55386000       2.65332606       2.09253738       0.00000000
Si       2.16114000       2.65332606      -0.62246262       0.00000000
Si       3.51834678       1.32052170       0.72367782       0.00000000
Si      -3.26886000      -0.06167394       2.09253738       0.00000000
Si       0.80488890       1.39615074       3.57269022       0.00000000
Si       2.16114000      -0.06167394      -3.33746262       0.00000000
