10
Lattice="10.86 0.0 0.0 0.0 10.86 0.0 0.0 0.0 10.86" Properties=species:S:1:pos:R:3:initial_magmoms:R:1 pbc="T T T"
Si      -1.31333238      -1.37711316       1.21991466       0.00000000
Si      -1.31333238       1.33788684      -1.49508534       0.00000000
Si       1.40166762      -1.37711316      -1.49508534       0.00000000
Si       0.04416762      -2.73461316       2.57741466       0.00000000
Si      -2.77513182       0.21518004       2.54229342       0.00000000
Si      -2.67083238      -2.73461316      -0.13758534       0.00000000
Si       2.75916762      -2.73461316      -0.13758534       0.00000000
Si      -2.67083238      -0.01961316      -2.85258534       0.00000000
Si       0.04416762       2.69538684      -2.85258534       0.00000000
Si      -2.56918278       2.97672600       0.29757486       0.00000000
