10
Lattice="10.86 0.0 0.0 0.0 10.86 0.0 0.0 0.0 10.86" Properties=species:S:1:pos:R:3:initial_magmoms:R:1 pbc="T T T"
Si       1.57060578      -1.47543960      -1.07633460       0.00000000
Si      -1.14439422      -1.47543960       1.63866540       0.00000000
Si       1.57060578       1.23956040       1.63866540       0.00000000
Si       0.16245474      -2.77834638      -2.44036146       0.00000000
Si      -2.50510878       2.70580158       0.39468498       0.00000000
Si       0.06761436       2.70277164      -2.56294914       0.00000000
Si      -2.89152930      -2.45560890       0.10214916       0.00000000
Si       2.92810578      -0.11793960      -2.43383460       0.00000000
Si      -2.50189422      -0.11793960       2.99616540       0.00000000
Si       2.92810578       2.59706040       0.28116540       0.00000000
