10
Lattice="16.28999089631971 0.0 0.0 0.0 16.28999089631971 0.0 0.0 0.0 34.31052061344573" Properties=species:S:1:pos:R:3:initial_magmoms:R:1 pbc="T T T"
Si      -1.37148931      -1.34465220       1.38627276       0.00000000
Si       1.34379468       1.37307107       1.38774811       0.00000000
Si      -1.35587860       1.42473317      -1.34241702       0.00000000
Si       1.29889944      -1.61039097      -1.52086271       0.00000000
Si       2.69087994      -2.72032641       0.02056917       0.00000000
Si       2.70365130       2.70825811       0.01252335       0.00000000
Si      -2.72411873      -2.70314046       0.01811597       0.00000000
Si       2.69739594       0.01686815       2.74682290       0.00000000
Si      -0.01694160      -2.69822088       2.74678859       0.00000000
Si      -2.74299884       2.73112927       0.02779497       0.00000000
