10
Lattice="16.28999089631971 0.0 0.0 0.0 16.28999089631971 0.0 0.0 0.0 34.31052061344573" Properties=species:S:1:pos:R:3:initial_magmoms:R:1 pbc="T T T"
Si      -1.34393152      -1.35211724       1.36374102       0.00000000
Si       1.35741312      -1.35425286      -1.35420269       0.00000000
Si      -1.35855831       1.35778779      -1.35259010       0.00000000
Si       1.34708526       1.35628911       1.38865048       0.00000000
Si       2.46881466      -0.32995395       2.69049529       0.00000000
Si      -2.60966321       0.09420507       2.65656216       0.00000000
Si      -0.00013032      -2.71269469      -2.71183644       0.00000000
Si       2.71469592       0.00221544      -2.71207662       0.00000000
Si      -2.71588450       0.00327429      -2.71207662       0.00000000
Si      -2.71262518      -2.71569200       0.00559262       0.00000000
