10
Lattice="16.28999089631971 0.0 0.0 0.0 16.28999089631971 0.0 0.0 0.0 34.31052061344573" Properties=species:S:1:pos:R:3:initial_magmoms:R:1 pbc="T T T"
Si      -1.35780408       1.35166275       1.36302050       0.00000000
Si       1.36088289      -1.36218609       1.36034428       0.00000000
Si       1.36216980       1.35716877      -1.38611493       0.00000000
Si      -1.34993601      -1.38590433      -1.37289165       0.00000000
Si       2.55334347      -0.21321981      -2.71886324       0.00000000
Si      -2.71244790       2.70971118       0.00398002       0.00000000
Si       2.72139111       2.70503595       0.00123518       0.00000000
Si       0.00166158       2.71015101       2.71880148       0.00000000
Si      -2.70979263      -2.72109137       0.00233312       0.00000000
Si      -2.71331127      -0.00402363       2.71900735       0.00000000
