10
Lattice="16.28999089631971 0.0 0.0 0.0 16.28999089631971 0.0 0.0 0.0 34.31052061344573" Properties=species:S:1:pos:R:3:initial_magmoms:R:1 pbc="T T T"
Si       1.36459701      -1.24806065       1.44330374       0.00000000
Si       1.22921082       1.43248233      -1.48435771       0.00000000
Si      -1.35242838       1.44191424       1.41827077       0.00000000
Si      -0.82012005      -1.96364777      -1.28069034       0.00000000
Si      -0.70393977      -0.90374314      -3.37150602       0.00000000
Si       2.55085110       2.61459876       0.07229917       0.00000000
Si       2.70461241      -2.62453307       0.10149744       0.00000000
Si      -0.00177561      -2.60270447       2.79078500       0.00000000
Si       2.66458788      -0.05805430      -2.81673890       0.00000000
Si      -2.71228500       0.10672719       2.79349553       0.00000000
