10
Lattice="16.28999089631971 0.0 0.0 0.0 16.28999089631971 0.0 0.0 0.0 34.31052061344573" Properties=species:S:1:pos:R:3:initial_magmoms:R:1 pbc="T T T"
Si      -1.26573170       1.44632231       1.29282114       0.00000000
Si       1.34393152       1.35211724      -1.36374102       0.00000000
Si      -1.36869367      -1.36357476      -1.35814841       0.00000000
Si       1.41169792      -1.39355316       1.33934623       0.00000000
Si      -2.18338195      -0.21700235       2.60725792       0.00000000
Si       2.69101678       2.70840635       0.02490945       0.00000000
Si       2.70134464      -0.00213562      -2.71794372       0.00000000
Si      -0.01462679       2.70990503      -2.71633112       0.00000000
Si      -0.01208229      -2.71726227      -2.71859562       0.00000000
Si       2.71528888      -2.73008250      -0.01410163       0.00000000
