10
Lattice="16.28999089631971 0.0 0.0 0.0 16.28999089631971 0.0 0.0 0.0 34.31052061344573" Properties=species:S:1:pos:R:3:initial_magmoms:R:1 pbc="T T T"
Si      -1.12541094      -0.23095962       2.06607777       0.00000000
Si       2.32767810      -0.45758610      -0.00981281       0.00000000
Si      -0.90723897      -1.84196080      -1.24814882       0.00000000
Si      -1.29836187       2.05757361      -0.54509155       0.00000000
Si       1.44274014       0.45084204      -2.85209793       0.00000000
Si      -0.27056061       2.10206160      -2.61631590       0.00000000
Si       0.74469735       2.73660597       2.10701025       0.00000000
Si       2.21555403      -2.63403503       1.01140609       0.00000000
Si       0.30941226       0.91062729       3.50128765       0.00000000
Si      -3.26389046       0.66860676       1.93906016       0.00000000
