10
Lattice="16.28999089631971 0.0 0.0 0.0 16.28999089631971 0.0 0.0 0.0 34.31052061344573" Properties=species:S:1:pos:R:3:initial_magmoms:R:1 pbc="T T T"
Si       1.25796267      -1.86403212       0.59226854       0.00000000
Si      -1.80177174       0.56164662       1.37763679       0.00000000
Si       1.33421616       1.91816379      -0.07785061       0.00000000
Si       0.17207127      -0.49300056      -2.34186589       0.00000000
Si       1.75125645      -2.14522033      -1.66941362       0.00000000
Si       0.18383265       2.73698064      -1.97179241       0.00000000
Si      -1.50456069       2.85764067       1.68495630       0.00000000
Si      -3.72817013       0.07249050       0.14609428       0.00000000
Si      -0.17606232      -3.62217191       1.17482719       0.00000000
Si       3.30235767      -1.27627263       1.63074565       0.00000000
