10
Lattice="16.28999089631971 0.0 0.0 0.0 16.28999089631971 0.0 0.0 0.0 34.31052061344573" Properties=species:S:1:pos:R:3:initial_magmoms:R:1 pbc="T T T"
Si       0.95550624      -0.27836352      -2.20455511       0.00000000
Si      -0.85010994      -2.20742532       0.54148894       0.00000000
Si       0.09273897       2.10574314       1.46433953       0.00000000
Si      -2.46039273      -0.86833845       2.11669787       0.00000000
Si      -0.79658100       0.40102722       3.31069059       0.00000000
Si       1.23649245      -2.62404207      -2.08885997       0.00000000
Si       2.79912699       1.06548003      -2.56865856       0.00000000
Si       0.44948997       3.87881190      -0.72947639       0.00000000
Si       2.64093480      -3.26001996      -0.18448777       0.00000000
Si       0.35403057      -3.84465177       1.85698934       0.00000000
