10
Lattice="16.28999089631971 0.0 0.0 0.0 16.28999089631971 0.0 0.0 0.0 34.31052061344573" Properties=species:S:1:pos:R:3:initial_magmoms:R:1 pbc="T T T"
Si       0.35152191      -1.86476517       1.32109302       0.00000000
Si       1.24910091       1.90262313       0.51095256       0.00000000
Si      -2.15410815       0.54322263       0.88260433       0.00000000
Si       1.28529729      -0.52149177      -2.17542546       0.00000000
Si      -1.36076886       1.54175076       2.96511685       0.00000000
Si      -0.86798007      -3.49966215       0.14660894       0.00000000
Si      -2.94917418       1.84316463      -0.99421651       0.00000000
Si       0.87983919       3.33918936      -1.37001985       0.00000000
Si       0.66741759       2.67823890       2.61525227       0.00000000
Si       2.60871318      -2.45913840       1.34325763       0.00000000
