10
Lattice="16.28999089631971 0.0 0.0 0.0 16.28999089631971 0.0 0.0 0.0 34.31052061344573" Properties=species:S:1:pos:R:3:initial_magmoms:R:1 pbc="T T T"
Si      -0.92388735      -1.90472454      -0.83968184       0.00000000
Si      -1.03198779       2.02165416      -0.49180728       0.00000000
Si       1.99249506       0.55032507      -1.19441851       0.00000000
Si      -0.65567250      -0.17583426       2.29263027       0.00000000
Si       2.21151411       2.47436955       0.16506801       0.00000000
Si       0.11914506       3.30831981       1.20718203       0.00000000
Si       2.51836884      -2.33083836       0.83203059       0.00000000
Si      -0.25948341      -3.64400784       0.66709983       0.00000000
Si      -3.21396813       1.83003489       0.39011084       0.00000000
Si      -0.98831430       2.04928200       2.97156723       0.00000000
