10
Lattice="16.28999089631971 0.0 0.0 0.0 16.28999089631971 0.0 0.0 0.0 34.31052061344573" Properties=species:S:1:pos:R:3:initial_magmoms:R:1 pbc="T T T"
Si      -1.79260047       1.59514938      -0.36636794       0.00000000
Si       1.73472210       0.85934637      -1.54033737       0.00000000
Si       1.62308673       0.08509896       1.87894809       0.00000000
Si      -1.12275567      -2.20454199      -0.59141077       0.00000000
Si      -0.80728353      -2.57880474       1.79155915       0.00000000
Si      -0.09894546      -0.74573991       3.24502364       0.00000000
Si      -1.40493105       3.07133289       1.73553003       0.00000000
Si      -3.03500619       0.66383379      -2.51746724       0.00000000
Si       3.98070585       0.38654541      -0.78735827       0.00000000
Si       1.87281243      -0.25417287      -3.63053546       0.00000000
