10
Lattice="16.28999089631971 0.0 0.0 0.0 16.28999089631971 0.0 0.0 0.0 34.31052061344573" Properties=species:S:1:pos:R:3:initial_magmoms:R:1 pbc="T T T"
Si       0.03864965       2.31523743      -0.03441347       0.00000000
Si      -1.59375400      -0.71193979      -1.53772977       0.00000000
Si      -0.86751322      -0.40734285       2.14924652       0.00000000
Si       1.74923812      -1.49039297      -0.55727179       0.00000000
Si      -1.92659128      -2.92506728      -0.72028116       0.00000000
Si       0.37783840      -3.49060721      -0.72134479       0.00000000
Si       1.96504804       2.80439355       1.19712904       0.00000000
Si       0.69440360      -1.89896018       3.12771450       0.00000000
Si      -3.43621816       0.77899269      -1.36315775       0.00000000
Si       0.15496677       3.04116870      -2.26947065       0.00000000
