10
Lattice="16.28999089631971 0.0 0.0 0.0 16.28999089631971 0.0 0.0 0.0 34.31052061344573" Properties=species:S:1:pos:R:3:initial_magmoms:R:1 pbc="T T T"
Si       1.03198779      -2.02165416       0.49180728       0.00000000
Si      -2.18198034      -0.19161927       0.88191811       0.00000000
Si       0.79379541       0.69864552      -2.12107757       0.00000000
Si       1.15113285       1.28666565       1.69898931       0.00000000
Si       3.24350190       0.45271539       0.65687528       0.00000000
Si       3.02448285      -1.47132909      -0.70261123       0.00000000
Si      -0.08503380       3.25912224       1.08819308       0.00000000
Si       0.04367349       0.02762784       3.46337451       0.00000000
Si      -3.29795285       1.14794001      -0.62747115       0.00000000
Si       0.37631529      -2.19748842       2.78443755       0.00000000
