10
Lattice="16.28999089631971 0.0 0.0 0.0 16.28999089631971 0.0 0.0 0.0 34.31052061344573" Properties=species:S:1:pos:R:3:initial_magmoms:R:1 pbc="T T T"
Si       0.91898406       1.82720110       1.07536094       0.00000000
Si      -0.12950550      -2.21022720       0.71033111       0.00000000
Si      -2.34619983       0.27076914       0.06693986       0.00000000
Si       1.24594065      -0.06524145      -2.08697289       0.00000000
Si      -2.07228348      -2.03374134      -0.56849133       0.00000000
Si      -2.09502432       2.33783396      -1.03230121       0.00000000
Si       3.02127372       0.88970346       1.06390122       0.00000000
Si       3.30902028      -0.22936320      -0.95283800       0.00000000
Si      -0.66020112       3.47942087       0.40290867       0.00000000
Si      -2.84985405       0.23928153       2.36801052       0.00000000
