10
Lattice="16.28999089631971 0.0 0.0 0.0 16.28999089631971 0.0 0.0 0.0 34.31052061344573" Properties=species:S:1:pos:R:3:initial_magmoms:R:1 pbc="T T T"
Si       1.45394766      -1.23430145      -1.43356297       0.00000000
Si      -1.24998057       1.49046984      -1.43061227       0.00000000
Si       1.60635690       1.20923928       1.38803289       0.00000000
Si      -1.65488481      -1.05680886       1.52400556       0.00000000
Si      -3.11573943       0.99233793       1.56565855       0.00000000
Si       0.37105362       1.31797503       3.42113823       0.00000000
Si       0.10280619      -2.58973741      -2.80238196       0.00000000
Si      -2.76969096      -2.64762089       0.10348059       0.00000000
Si      -2.61881298       0.13152546      -2.80430335       0.00000000
Si      -2.62531269       2.82550050      -0.01434181       0.00000000
