10
Lattice="16.28999089631971 0.0 0.0 0.0 16.28999089631971 0.0 0.0 0.0 34.31052061344573" Properties=species:S:1:pos:R:3:initial_magmoms:R:1 pbc="T T T"
Si       2.26654548       0.28026945      -0.50587460       0.00000000
Si      -0.95798576       2.13636834      -0.28587542       0.00000000
Si      -0.56489177      -1.20461129       1.95384800       0.00000000
Si      -0.54623972      -1.71976788      -1.56486941       0.00000000
Si      -2.86170032      -1.23389745      -1.28094969       0.00000000
Si       1.01567710      -3.21138521      -0.58640144       0.00000000
Si      -1.48410389       1.99620918      -2.59102903       0.00000000
Si       2.97988458      -1.97278090      -0.69509723       0.00000000
Si      -3.64171439       0.12753441       0.54989502       0.00000000
Si       2.28632154       1.49196852      -2.51698689       0.00000000
