10
Lattice="16.28999089631971 0.0 0.0 0.0 16.28999089631971 0.0 0.0 0.0 34.31052061344573" Properties=species:S:1:pos:R:3:initial_magmoms:R:1 pbc="T T T"
Si      -1.95607062       0.63534649      -1.12847365       0.00000000
Si       0.10396278      -2.33767855       0.17120959       0.00000000
Si      -0.54835398       0.71955764       2.17806738       0.00000000
Si       1.69652205       1.41503802      -0.83456957       0.00000000
Si       1.24056495       2.18575213       2.49585160       0.00000000
Si      -2.25383553       2.88900772      -0.39323310       0.00000000
Si       1.70372223       0.88260425      -3.15344740       0.00000000
Si      -3.70509534      -0.55227826      -0.01911097       0.00000000
Si      -2.37638520       2.18910787       1.89672095       0.00000000
Si       2.05434819      -2.85628699       1.33711605       0.00000000
