10
Lattice="16.28999089631971 0.0 0.0 0.0 16.28999089631971 0.0 0.0 0.0 34.31052061344573" Properties=species:S:1:pos:R:3:initial_magmoms:R:1 pbc="T T T"
Si      -1.15720902       1.99184346      -0.43824852       0.00000000
Si       0.63056961      -1.19711952      -1.92331162       0.00000000
Si      -1.53707553      -1.01299365       1.48921467       0.00000000
Si       1.81737756       0.47768796       1.46049675       0.00000000
Si      -0.98588709      -2.81943899      -1.82240432       0.00000000
Si      -0.32910687       3.25531215       1.36775536       0.00000000
Si       1.97654715       2.81386944       1.17571927       0.00000000
Si      -0.67880430      -3.04701681       2.14533512       0.00000000
Si      -0.69755409       2.91931461      -2.51612912       0.00000000
Si      -1.81723095       0.21092292       3.49229829       0.00000000
