10
Lattice="16.28999089631971 0.0 0.0 0.0 16.28999089631971 0.0 0.0 0.0 34.31052061344573" Properties=species:S:1:pos:R:3:initial_magmoms:R:1 pbc="T T T"
Si       0.38128374       2.32367728       0.05994051       0.00000000
Si      -1.72972107      -0.39224528      -1.57107962       0.00000000
Si       2.02070934      -1.03905832      -0.69657258       0.00000000
Si      -0.13944240      -0.76068745       2.27365654       0.00000000
Si       2.66983326       2.11526302       0.58657299       0.00000000
Si      -0.70648101      -3.05926267       1.99930946       0.00000000
Si       3.44984733       0.75383115      -1.24427173       0.00000000
Si      -1.18798083       3.07606351       1.77745751       0.00000000
Si      -2.58799230       1.64177788      -2.22720007       0.00000000
Si      -3.47485248      -1.43493790      -0.47818599       0.00000000
