10
Lattice="16.28999089631971 0.0 0.0 0.0 16.28999089631971 0.0 0.0 0.0 34.31052061344573" Properties=species:S:1:pos:R:3:initial_magmoms:R:1 pbc="T T T"
Si       0.85152717       2.07516844      -0.70909593       0.00000000
Si       1.34915409      -1.24343755       1.50228698       0.00000000
Si       0.49562325      -1.12560463      -2.11726910       0.00000000
Si      -1.43537706       1.49053663       1.33238119       0.00000000
Si       2.80572444      -1.43816821      -1.47240250       0.00000000
Si      -3.36852765      -0.84568883      -0.55476712       0.00000000
Si      -0.55291518       2.71114633      -2.61346813       0.00000000
Si      -2.66458788       0.05805430       2.81673890       0.00000000
Si       0.04002453      -2.56647877       2.91823634       0.00000000
Si       2.46786984      -3.03001072       0.24068844       0.00000000
