10
Lattice="16.28999089631971 0.0 0.0 0.0 16.28999089631971 0.0 0.0 0.0 34.31052061344573" Properties=species:S:1:pos:R:3:initial_magmoms:R:1 pbc="T T T"
Si       1.48478463      -1.25265213      -1.33629259       0.00000000
Si      -1.22909679       1.50716709      -1.33910606       0.00000000
Si       1.90166202       0.87483816       1.14085976       0.00000000
Si      -1.81967445      -0.79193835       1.42824484       0.00000000
Si       0.86990229       1.21746573       3.27806328       0.00000000
Si      -2.59151094      -2.59968852       0.08711446       0.00000000
Si      -3.30797772       1.11172734       1.28177315       0.00000000
Si      -2.58434334       0.13022226      -2.70370485       0.00000000
Si       0.13558167      -2.58540219      -2.71025816       0.00000000
Si       2.84921874      -2.62257597       0.13669319       0.00000000
