10
Lattice="16.28999089631971 0.0 0.0 0.0 16.28999089631971 0.0 0.0 0.0 34.31052061344573" Properties=species:S:1:pos:R:3:initial_magmoms:R:1 pbc="T T T"
Si      -0.45965493      -0.92747115       2.07788060       0.00000000
Si      -0.77556690       2.22791814       0.11198960       0.00000000
Si       2.31404337       0.24614190      -0.45324223       0.00000000
Si      -1.29456630      -0.86200164      -1.80377370       0.00000000
Si      -0.04307076       2.63770938      -2.06978331       0.00000000
Si      -1.26257274       1.00281240      -3.24426740       0.00000000
Si       2.21412051       2.04333615      -2.04761870       0.00000000
Si      -2.80766295      -0.73787184       2.29674753       0.00000000
Si      -3.13538517       2.24578827       0.10083868       0.00000000
Si       3.39211557       1.00763424       1.58981317       0.00000000
