10
Lattice="16.28999089631971 0.0 0.0 0.0 16.28999089631971 0.0 0.0 0.0 34.31052061344573" Properties=species:S:1:pos:R:3:initial_magmoms:R:1 pbc="T T T"
Si      -1.84362075      -1.34384355       0.36410345       0.00000000
Si       1.43829297      -0.74756439      -1.72602601       0.00000000
Si      -0.84105270       2.21985459      -0.13641871       0.00000000
Si       1.81477116       0.16830828       1.74475957       0.00000000
Si       2.78145234       1.91371662       0.29277184       0.00000000
Si       2.45454462       1.32649470      -1.96640566       0.00000000
Si       1.03335615       3.46315626       0.74148508       0.00000000
Si      -2.94313059      -1.54650744      -1.71974719       0.00000000
Si       2.85084774      -2.36193597      -0.58581816       0.00000000
Si      -2.79912699      -1.06548003       2.56865856       0.00000000
