10
Lattice="16.28999089631971 0.0 0.0 0.0 16.28999089631971 0.0 0.0 0.0 34.31052061344573" Properties=species:S:1:pos:R:3:initial_magmoms:R:1 pbc="T T T"
Si       1.84362075       1.34384355      -0.36410345       0.00000000
Si      -1.09950984      -0.20266389      -2.08385063       0.00000000
Si       0.28098621      -2.34567855       0.11569514       0.00000000
Si      -0.95550624       0.27836352       2.20455511       0.00000000
Si      -1.39918068      -2.55604761      -1.88587882       0.00000000
Si       1.00256805       3.56369814      -0.50052215       0.00000000
Si      -2.95191090       1.23097014      -2.01450903       0.00000000
Si      -1.80561618      -1.92906180       2.74604405       0.00000000
Si       3.28191372       0.59627916      -2.09012946       0.00000000
Si       1.85025078      -3.09806478      -1.60182186       0.00000000
