10
Lattice="16.28999089631971 0.0 0.0 0.0 16.28999089631971 0.0 0.0 0.0 34.31052061344573" Properties=species:S:1:pos:R:3:initial_magmoms:R:1 pbc="T T T"
Si       0.82015263       2.22651720      -0.70491004       0.00000000
Si      -1.28529729       0.52149177       2.17542546       0.00000000
Si       2.36796327      -1.15048125       0.26196097       0.00000000
Si      -1.80991674      -1.25621964      -1.73432917       0.00000000
Si      -1.05867081       0.55211697      -2.96744997       0.00000000
Si      -0.32161347      -3.15988533      -1.58785747       0.00000000
Si      -0.03619638       2.42411490       2.68637802       0.00000000
Si       1.59884721      -3.04631145       1.44673822       0.00000000
Si      -0.56264031      -3.72122244       0.70230244       0.00000000
Si      -0.93377538      -1.34327340       3.49651849       0.00000000
