10
Lattice="16.28999089631971 0.0 0.0 0.0 16.28999089631971 0.0 0.0 0.0 34.31052061344573" Properties=species:S:1:pos:R:3:initial_magmoms:R:1 pbc="T T T"
Si       2.18344644       0.24728220       0.86695872       0.00000000
Si      -0.76911606      -1.89583020       1.18477725       0.00000000
Si       1.03175973      -0.34262757      -2.13720352       0.00000000
Si      -2.36796327       1.15048125      -0.26196097       0.00000000
Si      -1.04454738      -0.78716538       3.25672213       0.00000000
Si      -0.86990229      -1.21746573      -3.27806328       0.00000000
Si       2.70580158       2.59429653       0.15923522       0.00000000
Si       0.22426443       1.22376996       3.59622492       0.00000000
Si      -2.68957674      -2.00940408      -1.84981844       0.00000000
Si      -1.54781064       3.37699845      -0.96687101       0.00000000
