10
Lattice="16.28999089631971 0.0 0.0 0.0 16.28999089631971 0.0 0.0 0.0 34.31052061344573" Properties=species:S:1:pos:R:3:initial_magmoms:R:1 pbc="T T T"
Si      -0.70799598      -1.54730565       1.58593608       0.00000000
Si       2.29086270       0.20988036       0.47557839       0.00000000
Si       0.21445785      -0.72790236      -2.24871278       0.00000000
Si      -1.01866257       2.16854109      -0.05709274       0.00000000
Si       0.53999721       2.86459650      -1.67329071       0.00000000
Si       2.49038262       2.34598806      -0.50738426       0.00000000
Si      -0.09617616       1.34340372      -3.36902052       0.00000000
Si       0.30872808      -0.59272794       3.57045770       0.00000000
Si      -3.07354833      -1.38305358       1.36006980       0.00000000
Si       2.32318206       0.51390063       2.82725710       0.00000000
