10
Lattice="16.28999089631971 0.0 0.0 0.0 16.28999089631971 0.0 0.0 0.0 34.31052061344573" Properties=species:S:1:pos:R:3:initial_magmoms:R:1 pbc="T T T"
Si      -0.19280844       2.02030209      -1.10932837       0.00000000
Si       1.74809619      -1.54943964      -0.44871324       0.00000000
Si      -1.87440885      -1.24330167      -0.87790378       0.00000000
Si      -0.45471906       1.08282888       2.12073446       0.00000000
Si       0.78141501      -3.29484798       1.00327449       0.00000000
Si      -3.38299317      -0.64982439       1.09769710       0.00000000
Si      -2.70348840       1.57604121       1.85125948       0.00000000
Si      -2.11449087       3.00198636      -0.03983454       0.00000000
Si      -1.03335615      -3.46315626      -0.74148508       0.00000000
Si       1.42118847      -2.13666156      -2.70789073       0.00000000
