10
Lattice="16.28999089631971 0.0 0.0 0.0 16.28999089631971 0.0 0.0 0.0 34.31052061344573" Properties=species:S:1:pos:R:3:initial_magmoms:R:1 pbc="T T T"
Si       1.34001540      -1.37647242      -1.34180630       0.00000000
Si       1.35257499       1.35355632       1.35334836       0.00000000
Si      -1.36459701       1.24806065      -1.44330374       0.00000000
Si      -1.36637262      -1.35464382       1.34748126       0.00000000
Si      -2.18471706      -0.71558712      -2.72399408       0.00000000
Si      -0.36025335      -2.48691285      -2.80661386       0.00000000
Si      -2.71702539       2.68997489      -0.02503297       0.00000000
Si       2.64914496      -0.05343120      -2.75775565       0.00000000
Si       2.70653463      -0.00033132       2.71012435       0.00000000
Si       2.72069064       2.70071000      -0.03069764       0.00000000
