10
Lattice="16.28999089631971 0.0 0.0 0.0 16.28999089631971 0.0 0.0 0.0 34.31052061344573" Properties=species:S:1:pos:R:3:initial_magmoms:R:1 pbc="T T T"
Si       0.36926172      -1.43656623       1.88097241       0.00000000
Si      -2.40060843       0.40190688       0.06807211       0.00000000
Si       1.10876256       2.19505227      -0.08045822       0.00000000
Si       1.22561073      -1.63416393      -1.51031565       0.00000000
Si      -2.57559561       1.03671189      -2.23787065       0.00000000
Si       3.37621653      -1.15483068      -0.31867629       0.00000000
Si       3.32759088       1.40757003      -0.45447741       0.00000000
Si      -0.87983919      -3.33918936       1.37001985       0.00000000
Si       2.68705179      -1.71608634       1.93247253       0.00000000
Si      -0.48583296       1.59050673       3.43788178       0.00000000
