10
Lattice="16.28999089631971 0.0 0.0 0.0 16.28999089631971 0.0 0.0 0.0 34.31052061344573" Properties=species:S:1:pos:R:3:initial_magmoms:R:1 pbc="T T T"
Si       1.23491232      -1.32320642       1.50291830       0.00000000
Si       1.50029271       1.18197471      -1.44584070       0.00000000
Si      -1.54681695      -1.37478056      -1.24773164       0.00000000
Si      -1.47527127       1.37936064       1.47932637       0.00000000
Si       2.75639832      -2.49497870       0.13929736       0.00000000
Si       2.58211161       2.68479237       0.03966985       0.00000000
Si       2.58250257       0.03704998       2.86519083       0.00000000
Si      -0.13123224      -2.68052180       2.86038736       0.00000000
Si      -2.85594651      -2.69782178       0.16821771       0.00000000
Si      -3.00970782       2.54131005       0.13901945       0.00000000
