10
Lattice="16.28999089631971 0.0 0.0 0.0 16.28999089631971 0.0 0.0 0.0 34.31052061344573" Properties=species:S:1:pos:R:3:initial_magmoms:R:1 pbc="T T T"
Si      -1.35114147      -1.35543597      -1.36881898       0.00000000
Si       1.35650088       1.36194988      -1.37187262       0.00000000
Si      -1.45394766       1.23430145       1.43356297       0.00000000
Si       1.49856597      -1.29153946       1.35320769       0.00000000
Si       0.15240924       2.44354073       2.82159586       0.00000000
Si      -2.70392823       2.72477129       0.00295071       0.00000000
Si       0.24465951      -2.86974318       2.54155323       0.00000000
Si       2.71797021      -2.71674750      -0.01557699       0.00000000
Si       2.71428867       2.72635141      -0.00771987       0.00000000
Si      -2.71401174       0.00242069      -2.72988379       0.00000000
