10
Lattice="16.28999089631971 0.0 0.0 0.0 16.28999089631971 0.0 0.0 0.0 34.31052061344573" Properties=species:S:1:pos:R:3:initial_magmoms:R:1 pbc="T T T"
Si       1.61569107       1.65929940       0.41563788       0.00000000
Si      -0.50583708      -1.75490215       1.54013151       0.00000000
Si       1.22526864      -1.58923774      -1.32284286       0.00000000
Si      -1.88514396       1.06512165      -1.09543260       0.00000000
Si       2.14291889       0.07408692      -2.63727964       0.00000000
Si      -3.12044724       1.17385740       0.93767274       0.00000000
Si      -0.67608387       2.65849542      -2.44822857       0.00000000
Si      -0.53898723      -2.66995853      -2.56382078       0.00000000
Si       3.38252958       1.32049998      -1.10521111       0.00000000
Si       1.20920670      -3.42033704       1.25058486       0.00000000
