10
Lattice="16.28999089631971 0.0 0.0 0.0 16.28999089631971 0.0 0.0 0.0 34.31052061344573" Properties=species:S:1:pos:R:3:initial_magmoms:R:1 pbc="T T T"
Si       2.11887288      -0.52092976       0.86713027       0.00000000
Si      -1.69652205      -1.41503802       0.83456957       0.00000000
Si       0.00720018      -0.53243376      -2.31887783       0.00000000
Si      -0.38607300       2.08982944       1.30016359       0.00000000
Si      -0.45595710       0.77071411       3.33042117       0.00000000
Si       1.38650706      -0.72021837       3.15584914       0.00000000
Si       2.79550476      -2.32923121      -0.53750892       0.00000000
Si       3.34584938       1.49944726       0.60897777       0.00000000
Si      -3.65259267      -0.77969153      -0.29390408       0.00000000
Si      -2.24487603      -0.69548037       3.01263695       0.00000000
