10
Lattice="16.28999089631971 0.0 0.0 0.0 16.28999089631971 0.0 0.0 0.0 34.31052061344573" Properties=species:S:1:pos:R:3:initial_magmoms:R:1 pbc="T T T"
Si      -0.00720018       0.53243376       2.31887783       0.00000000
Si       0.50583708       1.75490215      -1.54013151       0.00000000
Si      -1.59539373      -1.61781921      -0.75802276       0.00000000
Si       1.71504378      -1.66543488      -0.28954665       0.00000000
Si       1.73110572       0.16566441      -2.86297437       0.00000000
Si      -1.70372223      -0.88260425       3.15344740       0.00000000
Si       2.78830458      -1.79679744       1.78136892       0.00000000
Si       2.11167270       0.01150400       3.18600810       0.00000000
Si      -3.81422205      -0.83033698      -0.38400356       0.00000000
Si       3.55504393      -0.87582680      -1.51786397       0.00000000
