10
Lattice="16.28999089631971 0.0 0.0 0.0 16.28999089631971 0.0 0.0 0.0 34.31052061344573" Properties=species:S:1:pos:R:3:initial_magmoms:R:1 pbc="T T T"
Si       1.30643845      -1.34389242       1.40909956       0.00000000
Si      -1.35540360      -1.35814617      -1.36477034       0.00000000
Si       1.35925063       1.36050822      -1.36274602       0.00000000
Si      -1.43385624       1.32621777       1.41582442       0.00000000
Si      -2.70504639       2.70399339      -0.02027753       0.00000000
Si      -2.71379412      -2.70831024      -0.00157828       0.00000000
Si       2.70913777      -2.72007162       0.01797872       0.00000000
Si      -2.71193706      -0.00136836      -2.72463428       0.00000000
Si       0.00205254       2.71477737      -2.72586945       0.00000000
Si       2.71821130      -0.00355122      -2.72291875       0.00000000
