10
Lattice="16.28999089631971 0.0 0.0 0.0 16.28999089631971 0.0 0.0 0.0 34.31052061344573" Properties=species:S:1:pos:R:3:initial_magmoms:R:1 pbc="T T T"
Si       0.94436388      -1.75412349      -1.19755449       0.00000000
Si      -1.21559238       1.41014385      -1.40081356       0.00000000
Si       1.36679616       1.34154666       1.33826888       0.00000000
Si      -1.36150191      -1.36200690       1.34756704       0.00000000
Si      -2.40953535      -0.20859345      -2.66553025       0.00000000
Si       2.73716570      -0.81971280      -2.49928848       0.00000000
Si      -2.69749368       2.68938126      -0.02104609       0.00000000
Si       0.00521280       2.70032814       2.69730936       0.00000000
Si      -2.70813105      -0.01394424       2.70080904       0.00000000
Si       2.72106149      -0.01321119       2.69645160       0.00000000
