10
Lattice="16.28999089631971 0.0 0.0 0.0 16.28999089631971 0.0 0.0 0.0 34.31052061344573" Properties=species:S:1:pos:R:3:initial_magmoms:R:1 pbc="T T T"
Si      -1.35378045       1.35392706       1.35753082       0.00000000
Si      -1.35654975      -1.35687555      -1.35636426       0.00000000
Si       1.35809730       1.35715248      -1.35632995       0.00000000
Si       1.35786924      -1.35423657       1.36048152       0.00000000
Si       2.72171691      -0.00948078       2.70569486       0.00000000
Si      -2.71427238       0.00112401      -2.71341473       0.00000000
Si      -2.71393029       2.71376739       0.00199001       0.00000000
Si       0.00037467      -2.71450044      -2.71327749       0.00000000
Si      -0.00030951       2.71541268      -2.71320887       0.00000000
Si       2.71502172       0.00089595      -2.71396370       0.00000000
