10
Lattice="16.28999089631971 0.0 0.0 0.0 16.28999089631971 0.0 0.0 0.0 34.31052061344573" Properties=species:S:1:pos:R:3:initial_magmoms:R:1 pbc="T T T"
Si       0.06744647      -0.97168221       2.08857421       0.00000000
Si      -0.89137251       2.16616275      -0.10691164       0.00000000
Si      -0.72008316      -1.52476029      -1.70046466       0.00000000
Si       2.39071130       0.58836222      -0.51654518       0.00000000
Si       1.14830558      -0.34295337      -2.66764447       0.00000000
Si       1.25130725       0.96847308       3.12420251       0.00000000
Si       1.09908371       3.49695801       0.75119496       0.00000000
Si       0.62387183      -3.51780921      -1.25940267       0.00000000
Si       2.77838072       2.06454573       1.58535280       0.00000000
Si      -1.11444777       2.92975650      -2.37274538       0.00000000
