10
Lattice="16.28999089631971 0.0 0.0 0.0 16.28999089631971 0.0 0.0 0.0 34.31052061344573" Properties=species:S:1:pos:R:3:initial_magmoms:R:1 pbc="T T T"
Si       1.21559238      -1.41014385       1.40081356       0.00000000
Si      -1.19394297      -1.61873730      -1.26471669       0.00000000
Si      -1.48190130       1.27923741       1.37976748       0.00000000
Si       1.46782674       1.42068348      -1.44873994       0.00000000
Si      -1.31238756      -0.14576292      -3.10154726       0.00000000
Si      -0.43287417       2.16756369      -2.62981165       0.00000000
Si       2.58238854      -0.06859719       2.73908244       0.00000000
Si      -0.13600521       2.64839562       2.73990590       0.00000000
Si       2.15995626      -3.16426734       0.20325907       0.00000000
Si      -2.86071948       2.63109564       0.04773625       0.00000000
