10
Lattice="16.28999089631971 0.0 0.0 0.0 16.28999089631971 0.0 0.0 0.0 34.31052061344573" Properties=species:S:1:pos:R:3:initial_magmoms:R:1 pbc="T T T"
Si      -2.30586579       0.40368249      -0.00181846       0.00000000
Si       0.61840098       0.86910408      -2.12282741       0.00000000
Si      -0.24464322      -2.30096250      -0.58979818       0.00000000
Si      -2.06711955       2.07980946       1.57831914       0.00000000
Si       1.40094000      -3.18505338       0.81051788       0.00000000
Si       2.92283066       0.30356415      -2.12389103       0.00000000
Si      -1.21376790       0.72896121       3.37495625       0.00000000
Si       2.11036950      -1.59868431       2.54405790       0.00000000
Si      -3.42476073      -1.43057151       0.96542997       0.00000000
Si       1.67747904       3.38682851       0.74670028       0.00000000
