10
Lattice="16.28999089631971 0.0 0.0 0.0 16.28999089631971 0.0 0.0 0.0 34.31052061344573" Properties=species:S:1:pos:R:3:initial_magmoms:R:1 pbc="T T T"
Si       1.47328389       1.66765617      -0.70051829       0.00000000
Si      -0.57081789      -1.90009818      -1.25785870       0.00000000
Si       1.47224133      -1.22106582       1.39424309       0.00000000
Si      -1.83158896       1.11532743       1.04832423       0.00000000
Si       1.04871762       0.18293670       3.15859398       0.00000000
Si       0.21550041       2.04898878      -2.62674631       0.00000000
Si      -1.34915409       0.13541877       3.15663828       0.00000000
Si      -2.92138670      -1.90382859      -0.66888397       0.00000000
Si       1.09626813       3.33215208       0.88239846       0.00000000
Si      -1.23983190       3.42485847       1.04681457       0.00000000
