10
Lattice="16.28999089631971 0.0 0.0 0.0 16.28999089631971 0.0 0.0 0.0 34.31052061344573" Properties=species:S:1:pos:R:3:initial_magmoms:R:1 pbc="T T T"
Si       0.32638644      -0.90948699      -2.10670145       0.00000000
Si      -2.22958477      -0.49827852       0.49942422       0.00000000
Si       1.75624119      -0.96866856       1.28383178       0.00000000
Si       0.07024248       2.36004633      -0.36080964       0.00000000
Si       3.30041916      -0.03246597      -0.28645870       0.00000000
Si      -1.79383199      -0.00382815       2.88126189       0.00000000
Si       0.64285227       0.30265191       3.39907656       0.00000000
Si       2.51242299      -0.02409291      -2.54611654       0.00000000
Si      -1.26939825       3.17102769       1.47302009       0.00000000
Si      -3.49087274       0.95166180      -1.07124367       0.00000000
