10
Lattice="16.28999089631971 0.0 0.0 0.0 16.28999089631971 0.0 0.0 0.0 34.31052061344573" Properties=species:S:1:pos:R:3:initial_magmoms:R:1 pbc="T T T"
Si      -1.35588349      -1.35668482       1.35698185       0.00000000
Si       1.35742941      -1.35784141      -1.35708478       0.00000000
Si      -1.35862998       1.35816490      -1.35677599       0.00000000
Si       1.35754344       1.35844183       1.35763375       0.00000000
Si       0.00013032       2.71269469       2.71183644       0.00000000
Si      -0.00159642      -2.71380472       2.71290007       0.00000000
Si       2.71360449       0.00025805      -2.71458129       0.00000000
Si       2.71474479      -2.71401649       0.00000000       0.00000000
Si      -0.00073305      -2.71483099      -2.71461560       0.00000000
Si       2.71482624       2.71491013      -0.00024017       0.00000000
