10
Lattice="16.28999089631971 0.0 0.0 0.0 16.28999089631971 0.0 0.0 0.0 34.31052061344573" Properties=species:S:1:pos:R:3:initial_magmoms:R:1 pbc="T T T"
Si       1.35454771      -1.35356868       1.36051583       0.00000000
Si      -1.35262942      -1.35848826      -1.36815679       0.00000000
Si      -1.36296845       1.36123280       1.35962376       0.00000000
Si       1.37148931       1.34465220      -1.38627276       0.00000000
Si      -2.54546467       0.18930609      -2.71944309       0.00000000
Si      -2.71470148      -2.71322982       0.00082345       0.00000000
Si       2.71668493      -2.71125873       0.00205863       0.00000000
Si      -0.00248097      -2.71075374       2.71808096       0.00000000
Si       2.71271017       0.00342090       2.71804665       0.00000000
Si       2.71528399       2.71772327       0.00147535       0.00000000
