10
Lattice="16.28999089631971 0.0 0.0 0.0 16.28999089631971 0.0 0.0 0.0 34.31052061344573" Properties=species:S:1:pos:R:3:initial_magmoms:R:1 pbc="T T T"
Si       1.37308410       1.34429967       1.34857577       0.00000000
Si      -1.35428707       1.35711990      -1.35591822       0.00000000
Si       1.35759231      -1.35690813      -1.35523201       0.00000000
Si      -1.34941147      -1.36573731       1.36164808       0.00000000
Si       0.06949314       2.68082901       2.70202363       0.00000000
Si      -2.71089844       2.71080740       0.00452899       0.00000000
Si      -2.71361160      -0.00076563      -2.71262559       0.00000000
Si       0.00159642       2.71380472      -2.71290007       0.00000000
Si       0.00079821      -2.71577106      -2.71286576       0.00000000
Si      -2.71071206      -2.71793763       0.00003431       0.00000000
