10
Lattice="16.28999089631971 0.0 0.0 0.0 16.28999089631971 0.0 0.0 0.0 34.31052061344573" Properties=species:S:1:pos:R:3:initial_magmoms:R:1 pbc="T T T"
Si       2.37467475      -0.14172300       0.09411381       0.00000000
Si      -1.30918169      -1.80823887       1.02389513       0.00000000
Si      -0.09420507       2.04336873       1.39616449       0.00000000
Si       0.77610447      -0.10008576      -2.55881144       0.00000000
Si      -0.86825700       1.67633874      -2.85360759       0.00000000
Si       0.33655140       1.14043032       3.54053891       0.00000000
Si      -1.50170668      -3.56825934      -0.53836668       0.00000000
Si       0.53198253       3.90100444      -0.23749756       0.00000000
Si      -2.37501358       2.58289353       1.80322473       0.00000000
Si      -3.50621792      -1.05371865       1.47065267       0.00000000
