10
Lattice="10.86 0.0 0.0 0.0 10.86 0.0 0.0 0.0 10.86" Properties=species:S:1:pos:R:3:initial_magmoms:R:1 pbc="T T T"
Si       1.27685364      -1.39164384      -1.26665610       0.00000000
Si      -1.43814636       1.32335616      -1.26665610       0.00000000
Si       1.27685364       1.32335616       1.44834390       0.00000000
Si      -2.31551490      -1.33383606       2.36749086       0.00000000
Si      -2.91745212       2.22295512       0.24124404       0.00000000
Si       2.63435364      -0.03414384      -2.62415610       0.00000000
Si      -0.08064636       2.68085616      -2.62415610       0.00000000
Si       2.63435364       2.68085616       0.09084390       0.00000000
Si      -0.08064636      -2.74914384      -2.62415610       0.00000000
Si       2.63435364      -2.74914384       0.09084390       0.00000000
