10
Lattice="10.86 0.0 0.0 0.0 10.86 0.0 0.0 0.0 10.86" Properties=species:S:1:pos:R:3:initial_magmoms:R:1 pbc="T T T"
Si       1.58678718      -1.12001352      -1.11288936       0.00000000
Si      -1.12821282       1.59498648      -1.11288936       0.00000000
Si      -0.77815158      -1.65312006       1.65251190       0.00000000
Si       1.58678718       1.59498648       1.60211064       0.00000000
Si       0.22928718      -2.47751352      -2.47038936       0.00000000
Si      -2.48571282       0.23748648      -2.47038936       0.00000000
Si      -2.37827484      -2.68501554       0.18841014       0.00000000
Si       2.85698364      -2.23706226       0.39198084       0.00000000
Si      -2.41715364       0.33092592       2.96259714       0.00000000
Si       2.94428718       0.23748648      -2.47038936       0.00000000
