10
Lattice="16.28999089631971 0.0 0.0 0.0 16.28999089631971 0.0 0.0 0.0 34.49183129400761" Properties=species:S:1:pos:R:3:initial_magmoms:R:1 pbc="T T T"
Si      -1.35567009       1.35351505      -1.35832357       0.00000000
Si       1.35808101       1.35661178       1.35742678       0.00000000
Si      -1.35687555      -1.35849694       1.35735780       0.00000000
Si       1.35651717      -1.36085899      -1.36080698       0.00000000
Si      -2.71225242       2.71435233       0.00079331       0.00000000
Si       2.71599912       2.71223463      -0.00003449       0.00000000
Si       0.00084708       2.71427088       2.71485356       0.00000000
Si      -2.71461447      -0.00077000       2.71516399       0.00000000
Si      -2.71370223      -2.71648021       0.00103476       0.00000000
Si       2.71562445      -0.00122667       2.71481907       0.00000000
