10
Lattice="16.28999089631971 0.0 0.0 0.0 16.28999089631971 0.0 0.0 0.0 34.49183129400761" Properties=species:S:1:pos:R:3:initial_magmoms:R:1 pbc="T T T"
Si      -1.36755527       1.32089957      -1.35808212       0.00000000
Si       0.81404388       1.82305511       1.28654603       0.00000000
Si       1.38306987      -1.39207679      -1.33921508       0.00000000
Si      -1.56321283      -1.20003398       1.41633886       0.00000000
Si      -0.24296535      -2.44136456       2.88072487       0.00000000
Si       0.00438201       2.67959960      -2.71492254       0.00000000
Si      -2.77419419       2.64467384       0.08416012       0.00000000
Si      -2.70828485      -0.03766103      -2.71840622       0.00000000
Si       2.71902906      -0.03753527      -2.71350838       0.00000000
Si       0.00342090      -2.75144471      -2.71274956       0.00000000
