10
Lattice="16.28999089631971 0.0 0.0 0.0 16.28999089631971 0.0 0.0 0.0 34.49183129400761" Properties=species:S:1:pos:R:3:initial_magmoms:R:1 pbc="T T T"
Si      -1.32339960       1.25664318      -1.48294262       0.00000000
Si      -1.87988229      -0.95760765       1.15816736       0.00000000
Si       1.38657222      -1.46070149      -1.45352107       0.00000000
Si       1.08457191       1.80859725       1.35439150       0.00000000
Si      -0.81458145      -1.55201183       3.20819050       0.00000000
Si      -2.60034012       2.65323375      -0.00148315       0.00000000
Si       0.02847492       2.60832222      -2.84299078       0.00000000
Si      -0.81528192       3.45781314       1.53564617       0.00000000
Si      -2.69392617      -2.78066276      -0.12837867       0.00000000
Si       2.92794831       2.59558344       0.06232677       0.00000000
