10
Lattice="16.28999089631971 0.0 0.0 0.0 16.28999089631971 0.0 0.0 0.0 34.49183129400761" Properties=species:S:1:pos:R:3:initial_magmoms:R:1 pbc="T T T"
Si      -2.24780823      -0.43979742       0.32101565       0.00000000
Si       0.77701671      -0.07832232       2.20606427       0.00000000
Si       0.46165860       2.13881184      -0.95576918       0.00000000
Si       0.99965214      -1.75009171      -1.28799468       0.00000000
Si      -0.64697364       1.41771870      -3.06039292       0.00000000
Si      -2.49860907       0.86495013       2.29225941       0.00000000
Si       2.32606539      -1.82133929       2.02932803       0.00000000
Si      -3.16069983       0.42850845      -1.68296086       0.00000000
Si       2.80722312       1.83013263      -1.34459581       0.00000000
Si       2.67618636      -0.47775312      -2.38649114       0.00000000
