10
Lattice="16.28999089631971 0.0 0.0 0.0 16.28999089631971 0.0 0.0 0.0 34.49183129400761" Properties=species:S:1:pos:R:3:initial_magmoms:R:1 pbc="T T T"
Si       0.91289160      -0.86830587       2.00397652       0.00000000
Si      -2.26766574      -0.10189395       0.78103346       0.00000000
Si       0.01782126       2.27709765      -0.81638761       0.00000000
Si       0.17814744      -1.63800674      -1.79533531       0.00000000
Si       2.51372619       0.98921025      -1.37743205       0.00000000
Si       3.16069983      -0.42850845       1.68296086       0.00000000
Si      -2.64561003      -2.41744903       0.67372932       0.00000000
Si      -1.23505893      -3.36557006      -1.01371549       0.00000000
Si       0.49822965      -3.24561050       2.00476983       0.00000000
Si      -3.76931378      -0.17148483      -1.25677956       0.00000000
