10
Lattice="16.28999089631971 0.0 0.0 0.0 16.28999089631971 0.0 0.0 0.0 34.49183129400761" Properties=species:S:1:pos:R:3:initial_magmoms:R:1 pbc="T T T"
Si      -0.43642539       0.73339209      -2.27170226       0.00000000
Si       1.32970383      -1.93797243      -0.68673274       0.00000000
Si       1.10863224       0.72109314       2.10462374       0.00000000
Si      -2.49590493       1.28788740       0.56104444       0.00000000
Si      -2.51372619      -0.98921025       1.37743205       0.00000000
Si       0.64697364      -1.41771870       3.06039292       0.00000000
Si      -2.33557875      -2.62721699      -0.41790326       0.00000000
Si       3.45419676       0.41241393       1.71579711       0.00000000
Si       3.32316000      -1.89547182       0.67390178       0.00000000
Si      -0.05178591      -3.89169200      -0.08136628       0.00000000
