10
Lattice="16.28999089631971 0.0 0.0 0.0 16.28999089631971 0.0 0.0 0.0 34.49183129400761" Properties=species:S:1:pos:R:3:initial_magmoms:R:1 pbc="T T T"
Si      -2.20058745       0.34722135       0.99988426       0.00000000
Si       1.50164804       0.06959088       2.03781302       0.00000000
Si      -0.66103584      -2.23783386      -1.01271522       0.00000000
Si       0.96059686       1.02859947      -2.39356197       0.00000000
Si       1.12370375      -2.24596420       1.93050888       0.00000000
Si      -2.31539937      -1.11650031      -2.36620993       0.00000000
Si      -0.97290789      -3.13229726       1.33773193       0.00000000
Si      -2.99677749       1.73856654      -0.79769303       0.00000000
Si      -2.92860384      -1.85128682       1.46121276       0.00000000
Si      -0.70607769      -0.05049900      -3.79096480       0.00000000
