10
Lattice="16.28999089631971 0.0 0.0 0.0 16.28999089631971 0.0 0.0 0.0 34.49183129400761" Properties=species:S:1:pos:R:3:initial_magmoms:R:1 pbc="T T T"
Si       0.93603969       1.49816493      -1.64567517       0.00000000
Si      -0.53840079       1.46036211       1.96469030       0.00000000
Si      -1.82283471      -1.10832273      -1.55065013       0.00000000
Si       2.02380444      -1.43878167       1.29710053       0.00000000
Si       2.36009520       2.82689559      -0.32253329       0.00000000
Si       2.09407950       0.09832644      -3.08274364       0.00000000
Si       0.84308895       3.41408168       1.35932383       0.00000000
Si      -2.23024761       0.22542102       3.25896250       0.00000000
Si       2.53421901      -3.00456018      -0.48364473       0.00000000
Si      -0.62918496      -2.60118720      -3.04704457       0.00000000
