10
Lattice="16.28999089631971 0.0 0.0 0.0 16.28999089631971 0.0 0.0 0.0 34.49183129400761" Properties=species:S:1:pos:R:3:initial_magmoms:R:1 pbc="T T T"
Si      -1.95284520       0.91919583       0.88357774       0.00000000
Si       1.54150641       1.54134351      -0.87909380       0.00000000
Si       1.08893763      -1.18781793       1.77874473       0.00000000
Si      -0.95167809      -1.65517803      -1.47197421       0.00000000
Si      -2.56917735      -1.15522164       1.93109524       0.00000000
Si      -0.63995265      -1.19247687       3.37920109       0.00000000
Si       1.77083703       3.03457029       0.96570283       0.00000000
Si       2.59861338      -2.14120647      -1.40685360       0.00000000
Si       0.83201175      -2.04292890      -2.96923096       0.00000000
Si       3.43676646       0.09759339      -1.41871880       0.00000000
