10
Lattice="16.28999089631971 0.0 0.0 0.0 16.28999089631971 0.0 0.0 0.0 34.49183129400761" Properties=species:S:1:pos:R:3:initial_magmoms:R:1 pbc="T T T"
Si       0.09868482      -1.43164665      -1.94106338       0.00000000
Si       1.99863639       1.24004367      -0.73705635       0.00000000
Si      -2.21478840       1.17043650      -0.00727778       0.00000000
Si       0.42718896      -1.41819111       2.21420435       0.00000000
Si       1.11589758      -3.34370169       0.83042579       0.00000000
Si       1.28327733       2.06511588      -2.84492233       0.00000000
Si      -2.15246286      -2.02575924      -2.32833788       0.00000000
Si       0.48795066       0.00434943      -3.80993532       0.00000000
Si      -3.59065157      -0.30911904      -1.40854370       0.00000000
Si       2.78326053       2.45793294       1.08921815       0.00000000
