10
Lattice="16.28999089631971 0.0 0.0 0.0 16.28999089631971 0.0 0.0 0.0 34.49183129400761" Properties=species:S:1:pos:R:3:initial_magmoms:R:1 pbc="T T T"
Si       1.90296522       0.39626728       1.40343891       0.00000000
Si      -1.85222187       1.51277737       0.49547543       0.00000000
Si      -0.39983805      -2.41176775      -0.37689245       0.00000000
Si       0.36336474      -2.22407437      -2.68477666       0.00000000
Si      -2.32867179       0.88309067      -2.54701621       0.00000000
Si       2.51616969       1.13105380      -2.42398378       0.00000000
Si      -0.53641341      -2.76778570       2.52687297       0.00000000
Si       2.63098161       2.59477546       0.94211041       0.00000000
Si      -3.52875609       0.24043877       1.59397189       0.00000000
Si       1.41732774       0.13339067       3.71601401       0.00000000
