10
Lattice="16.28999089631971 0.0 0.0 0.0 16.28999089631971 0.0 0.0 0.0 34.49183129400761" Properties=species:S:1:pos:R:3:initial_magmoms:R:1 pbc="T T T"
Si      -1.58061870       0.14830416       1.71324471       0.00000000
Si      -1.18886049       0.98189604      -1.85728268       0.00000000
Si       0.83228868      -2.25633930       0.24954854       0.00000000
Si       2.31897924       0.89787222      -0.09233468       0.00000000
Si       2.54901033      -1.32398604      -1.12412390       0.00000000
Si       1.29256263       2.93819472      -1.00271259       0.00000000
Si      -1.36344042      -1.94052181       2.75562293       0.00000000
Si      -2.10776310      -0.94170861      -2.82919404       0.00000000
Si       0.94231134      -2.43458774       2.64600782       0.00000000
Si       2.82567969       0.86833845       2.30560775       0.00000000
