10
Lattice="16.28999089631971 0.0 0.0 0.0 16.28999089631971 0.0 0.0 0.0 34.49183129400761" Properties=species:S:1:pos:R:3:initial_magmoms:R:1 pbc="T T T"
Si       0.65045970      -1.65557618       1.50187865       0.00000000
Si      -0.97873578      -1.70227961      -1.40602580       0.00000000
Si      -1.89576504       1.11182508       1.17265394       0.00000000
Si       2.19589200       1.17297774      -0.34077948       0.00000000
Si      -2.23627491      -0.15970227      -2.65118160       0.00000000
Si      -0.15710076       3.49047459      -0.21012435       0.00000000
Si       1.79688474      -0.23150045       2.99633262       0.00000000
Si       2.57235390       1.71504378       1.87820099       0.00000000
Si       1.54743597      -3.38291891       0.03949317       0.00000000
Si      -2.57593770      -2.96177354      -0.04170065       0.00000000
