10
Lattice="16.28999089631971 0.0 0.0 0.0 16.28999089631971 0.0 0.0 0.0 34.49183129400761" Properties=species:S:1:pos:R:3:initial_magmoms:R:1 pbc="T T T"
Si       1.35549090       1.34069958       1.36622220       0.00000000
Si       1.35767376      -1.35619137      -1.35966875       0.00000000
Si      -1.35373158       1.35767376      -1.36273852       0.00000000
Si      -1.33429761      -1.36531377       1.37729409       0.00000000
Si      -2.71033020       2.71060713      -0.00106925       0.00000000
Si       2.71409319      -2.71463076      -0.00058636       0.00000000
Si      -2.71288773      -2.71813311      -0.00196604       0.00000000
Si      -2.71360449      -0.00026064      -2.71813028       0.00000000
Si       2.72114676       2.71178001      -0.00372512       0.00000000
Si       0.00127062       2.71467963      -2.71840622       0.00000000
