10
Lattice="16.28999089631971 0.0 0.0 0.0 16.28999089631971 0.0 0.0 0.0 34.49183129400761" Properties=species:S:1:pos:R:3:initial_magmoms:R:1 pbc="T T T"
Si       1.81953859       0.04776065       1.46731782       0.00000000
Si       0.02398931       2.32900411      -0.26051695       0.00000000
Si       0.28749830      -1.19030215      -2.00087225       0.00000000
Si      -1.20084636      -0.99562525       1.79092036       0.00000000
Si       0.73103102      -0.88091433       3.31528769       0.00000000
Si       2.36057836       2.51202226      -0.74861112       0.00000000
Si      -1.39086921      -0.08024128      -3.25706545       0.00000000
Si       0.33454871      -3.41399371      -1.18455362       0.00000000
Si       3.17297695      -1.69776076       0.89285604       0.00000000
Si       2.46382438      -0.83361631      -2.82195075       0.00000000
