10
Lattice="16.28999089631971 0.0 0.0 0.0 16.28999089631971 0.0 0.0 0.0 34.49183129400761" Properties=species:S:1:pos:R:3:initial_magmoms:R:1 pbc="T T T"
Si       1.34320824      -1.32344847      -1.49936074       0.00000000
Si      -1.37275830       1.34913780      -1.49132414       0.00000000
Si       0.77950908       2.01385125       1.20880140       0.00000000
Si      -0.51476400      -1.91026314       1.53743975       0.00000000
Si      -2.54166354      -2.72243367       0.04580518       0.00000000
Si       2.77925319      -2.55511908      -0.14438289       0.00000000
Si       2.66087376       2.75665896      -0.05884310       0.00000000
Si      -2.72297124       2.71472850      -0.12537788       0.00000000
Si       2.69926929       0.00860112      -2.86123697       0.00000000
Si      -0.01415601      -2.70619254      -2.85813271       0.00000000
