10
Lattice="16.28999089631971 0.0 0.0 0.0 16.28999089631971 0.0 0.0 0.0 34.49183129400761" Properties=species:S:1:pos:R:3:initial_magmoms:R:1 pbc="T T T"
Si      -0.69113583       1.89193689       1.29682460       0.00000000
Si       2.43520839       0.18507069       0.08274595       0.00000000
Si      -0.56997081      -2.01166839       1.28985724       0.00000000
Si      -0.59031702      -0.09153351      -2.49807228       0.00000000
Si       1.18509750      -1.84262706      -2.75624378       0.00000000
Si       2.98600587      -1.84621086      -1.10298040       0.00000000
Si      -2.91553533      -1.70298918       1.67868388       0.00000000
Si      -1.56673962       1.01278188       3.34405390       0.00000000
Si       1.02662838       3.59103276       1.51405427       0.00000000
Si       0.85755447      -2.25145719       3.23516312       0.00000000
