10
Lattice="16.28999089631971 0.0 0.0 0.0 16.28999089631971 0.0 0.0 0.0 34.49183129400761" Properties=species:S:1:pos:R:3:initial_magmoms:R:1 pbc="T T T"
Si       1.35021294      -1.36559070      -1.36594627       0.00000000
Si      -1.12006782      -1.73121975       1.16030585       0.00000000
Si      -1.36821339       1.37920914      -1.35815111       0.00000000
Si       1.79519058       0.97583616       1.20524873       0.00000000
Si       2.66564673       2.65354326      -0.12123885       0.00000000
Si       3.50248032      -0.70087725       1.33417927       0.00000000
Si      -0.00527796      -2.70629028      -2.73216847       0.00000000
Si       2.72297124      -2.71472850       0.12537788       0.00000000
Si      -2.56186314       2.87207361       0.13824334       0.00000000
Si      -2.71560816       0.00431685      -2.73323771       0.00000000
