10
Lattice="16.28999089631971 0.0 0.0 0.0 16.28999089631971 0.0 0.0 0.0 34.49183129400761" Properties=species:S:1:pos:R:3:initial_magmoms:R:1 pbc="T T T"
Si      -1.91873394      -0.11316663      -1.25984933       0.00000000
Si       0.53265042       2.31076908       0.24547850       0.00000000
Si       1.83146841      -1.34664543       0.81345580       0.00000000
Si      -2.20833756      -1.06331346       1.18786484       0.00000000
Si      -1.52982648       0.56565396       2.80146260       0.00000000
Si      -1.25103942       2.69851995       1.74273524       0.00000000
Si       2.29925205       2.21249151       1.80785586       0.00000000
Si       3.54923262       0.35245044       1.03068548       0.00000000
Si       0.95586462      -2.22580044       2.86068510       0.00000000
Si      -1.39598784      -0.43634394      -3.48395284       0.00000000
