10
Lattice="16.28999089631971 0.0 0.0 0.0 16.28999089631971 0.0 0.0 0.0 34.49183129400761" Properties=species:S:1:pos:R:3:initial_magmoms:R:1 pbc="T T T"
Si      -1.35708732       1.35767376      -1.35966875       0.00000000
Si      -1.35900954      -1.35068535       1.36698102       0.00000000
Si       1.35925389      -1.35667681      -1.36080698       0.00000000
Si       1.35839052       1.36405944       1.36905053       0.00000000
Si      -2.55573810       0.14102253       2.78359582       0.00000000
Si       2.71575101       2.71256193      -0.00203502       0.00000000
Si       2.71495656      -2.71367684      -0.00524276       0.00000000
Si      -2.71513575      -2.71507778      -0.00327673       0.00000000
Si      -0.00001629      -2.71423093      -2.71768189       0.00000000
Si       2.71493729       0.00057015      -2.71733697       0.00000000
