10
Lattice="16.28999089631971 0.0 0.0 0.0 16.28999089631971 0.0 0.0 0.0 34.49183129400761" Properties=species:S:1:pos:R:3:initial_magmoms:R:1 pbc="T T T"
Si       1.33705062      -1.34706816       1.39046997       0.00000000
Si       1.35900954       1.35068535      -1.36698102       0.00000000
Si      -1.35612621      -1.36439243      -1.37025775       0.00000000
Si      -1.19672856       1.49170788       1.41661479       0.00000000
Si      -2.44610640       0.00537896       2.73206499       0.00000000
Si       2.39873508       0.25334208       2.85509742       0.00000000
Si      -2.70749574       2.69956251       0.00348368       0.00000000
Si       2.71740006       2.71474479       0.00206951       0.00000000
Si       0.00192222       2.70835911      -2.72664977       0.00000000
Si      -2.71212210      -2.72319020      -0.02814535       0.00000000
