10
Lattice="16.28999089631971 0.0 0.0 0.0 16.28999089631971 0.0 0.0 0.0 34.49183129400761" Properties=species:S:1:pos:R:3:initial_magmoms:R:1 pbc="T T T"
Si      -0.53484957       1.17335241       1.99000732       0.00000000
Si      -1.40025582       0.62457489      -1.81371947       0.00000000
Si      -0.64633833      -2.19789893       0.66520983       0.00000000
Si       2.30234130       0.32329134      -0.64303157       0.00000000
Si      -2.57409693      -1.50387651       1.96903627       0.00000000
Si      -2.06215110      -2.90041658      -1.10805070       0.00000000
Si       0.76852019       0.21134646       3.66175833       0.00000000
Si       3.59390699      -0.63179136       1.09466786       0.00000000
Si      -0.83919564       2.74592385      -2.56640063       0.00000000
Si       1.03202919      -3.30795980       1.92140303       0.00000000
