10
Lattice="16.28999089631971 0.0 0.0 0.0 16.28999089631971 0.0 0.0 0.0 34.49183129400761" Properties=species:S:1:pos:R:3:initial_magmoms:R:1 pbc="T T T"
Si      -1.33322247      -1.34418564      -1.35909274       0.00000000
Si       1.35528729      -1.35580041       1.35501235       0.00000000
Si      -1.35755973       1.35769005       1.35552973       0.00000000
Si       1.36021500       1.34470692      -1.39270504       0.00000000
Si      -2.60258814       0.06375906      -2.72767073       0.00000000
Si      -0.00079821      -2.71381626       2.71216319       0.00000000
Si       2.71447830       0.00076563       2.71264608       0.00000000
Si      -2.71521720       0.00087966       2.71243913       0.00000000
Si      -0.00057015       2.71567332       2.71233565       0.00000000
Si      -2.71358820       2.71456560      -0.00520827       0.00000000
