10
Lattice="16.28999089631971 0.0 0.0 0.0 16.28999089631971 0.0 0.0 0.0 34.49183129400761" Properties=species:S:1:pos:R:3:initial_magmoms:R:1 pbc="T T T"
Si       1.35608550       1.35801585      -1.35715084       0.00000000
Si      -1.35731538       1.35679410       1.35770271       0.00000000
Si      -1.35777150      -1.35821133      -1.35711635       0.00000000
Si       1.35789884      -1.35811359       1.35794416       0.00000000
Si       0.00079821       2.71381626      -2.71216319       0.00000000
Si      -2.71441899       2.71469592       0.00027593       0.00000000
Si      -2.71412577      -0.00100998       2.71561238       0.00000000
Si       0.00221544      -2.71536055       2.71447415       0.00000000
Si       2.71527651       2.71458189       0.00048289       0.00000000
Si      -2.71531494      -2.71536870       0.00031043       0.00000000
