10
Lattice="16.28999089631971 0.0 0.0 0.0 16.28999089631971 0.0 0.0 0.0 34.49183129400761" Properties=species:S:1:pos:R:3:initial_magmoms:R:1 pbc="T T T"
Si       1.35731538      -1.35679410      -1.35770271       0.00000000
Si      -1.35710361       1.35790182      -1.35742678       0.00000000
Si      -1.35681039      -1.35780408       1.35790967       0.00000000
Si       1.35840681       1.35894438       1.35801314       0.00000000
Si       2.71340088       0.00122175      -2.71485356       0.00000000
Si       0.00055386       2.71471221      -2.71433618       0.00000000
Si      -2.71484253      -2.71454931      -0.00013797       0.00000000
Si      -2.71508688       0.00011403      -2.71433618       0.00000000
Si      -0.00045612      -2.71500543      -2.71481907       0.00000000
Si       2.71521422      -2.71490769       0.00024144       0.00000000
