10
Lattice="16.28999089631971 0.0 0.0 0.0 16.28999089631971 0.0 0.0 0.0 34.49183129400761" Properties=species:S:1:pos:R:3:initial_magmoms:R:1 pbc="T T T"
Si       1.35700233       1.35648459      -1.35815111       0.00000000
Si      -1.36207206       1.35684297       1.35639202       0.00000000
Si      -1.35840681      -1.35894438      -1.35801314       0.00000000
Si       1.35762113      -1.36186029       1.35753025       0.00000000
Si       2.71365566       2.71259451       0.00072433       0.00000000
Si      -0.00086337       2.71375110      -2.71554340       0.00000000
Si       2.71418508      -0.00115659      -2.71523297       0.00000000
Si       2.71514131      -2.71549413      -0.00055187       0.00000000
Si      -2.71551042      -0.00104256      -2.71543992       0.00000000
Si      -2.71515204       2.71585251      -0.00120721       0.00000000
