10
Lattice="16.28999089631971 0.0 0.0 0.0 16.28999089631971 0.0 0.0 0.0 34.49183129400761" Properties=species:S:1:pos:R:3:initial_magmoms:R:1 pbc="T T T"
Si       2.32094123       0.29323629      -0.34088296       0.00000000
Si      -0.57930498      -0.11297115      -2.29995109       0.00000000
Si      -0.66124368       1.87523964       1.33366189       0.00000000
Si      -0.71550567      -2.07862029       1.01782002       0.00000000
Si       0.08929235      -3.31716528      -0.84608509       0.00000000
Si       3.05630441       0.00513135       1.89946621       0.00000000
Si      -1.21407741      -2.35515933      -2.51783611       0.00000000
Si       2.58034319       2.31925617      -1.59321307       0.00000000
Si      -3.01553964       1.94487939       1.43934492       0.00000000
Si       0.07853753       3.94628508       0.47967817       0.00000000
