10
Lattice="16.28999089631971 0.0 0.0 0.0 16.28999089631971 0.0 0.0 0.0 34.49183129400761" Properties=species:S:1:pos:R:3:initial_magmoms:R:1 pbc="T T T"
Si       1.27694052      -1.39659057      -1.48145947       0.00000000
Si      -1.43298569       1.31636232      -1.47742393       0.00000000
Si       1.78505820       0.80457939       1.53712932       0.00000000
Si      -1.20110568      -1.71012420       1.35466743       0.00000000
Si      -1.64772535       0.80298297       1.74452882       0.00000000
Si       2.53485432       2.50738938      -0.03956215       0.00000000
Si       2.60034012      -2.65323375       0.00148315       0.00000000
Si      -2.67125359       2.76097581      -0.08381520       0.00000000
Si       0.72045783      -3.61084140       1.15965051       0.00000000
Si       2.62881504      -0.04491153      -2.84150763       0.00000000
