10
Lattice="16.28999089631971 0.0 0.0 0.0 16.28999089631971 0.0 0.0 0.0 34.49183129400761" Properties=species:S:1:pos:R:3:initial_magmoms:R:1 pbc="T T T"
Si       2.35429596      -0.06963975      -0.10568303       0.00000000
Si      -0.50204151       2.28915225       0.41217761       0.00000000
Si      -0.74256336      -1.51809768       1.71324471       0.00000000
Si      -1.42136766       0.31833918      -1.93537223       0.00000000
Si      -2.45542428       2.13262164      -0.91451693       0.00000000
Si       0.09063756       0.78161049      -3.65765380       0.00000000
Si       3.02179500      -0.32221620       2.21751556       0.00000000
Si       3.09407717       2.00140569      -0.95966676       0.00000000
Si       3.01553964      -1.94487939      -1.43934492       0.00000000
Si      -2.69764029      -0.73836054       2.79408134       0.00000000
