10
Lattice="16.28999089631971 0.0 0.0 0.0 16.28999089631971 0.0 0.0 0.0 34.49183129400761" Properties=species:S:1:pos:R:3:initial_magmoms:R:1 pbc="T T T"
Si      -1.95569595       1.28101043       0.12348083       0.00000000
Si       2.09661164       0.88633305       0.59277694       0.00000000
Si      -0.31314267      -1.73586240       1.62342793       0.00000000
Si       0.31187205       0.89446339      -2.35044716       0.00000000
Si       0.97290789       3.13229726      -1.33773193       0.00000000
Si      -0.48503475      -3.55727988       0.19277495       0.00000000
Si      -2.44133343       1.01813382       2.43605593       0.00000000
Si       3.50716274      -0.06178797      -1.09466786       0.00000000
Si      -1.22767956       3.47951861      -0.33784768       0.00000000
Si      -2.48582142      -1.32667389       2.59040696       0.00000000
