10
Lattice="16.28999089631971 0.0 0.0 0.0 16.28999089631971 0.0 0.0 0.0 34.49183129400761" Properties=species:S:1:pos:R:3:initial_magmoms:R:1 pbc="T T T"
Si      -1.32024749       1.24133058      -1.46438601       0.00000000
Si      -1.14307256      -1.55284425       1.43151527       0.00000000
Si       0.70910370       1.94245218       1.23746412       0.00000000
Si       1.53730359      -1.38618126      -1.41433833       0.00000000
Si       2.71425609       1.17059940       2.08665348       0.00000000
Si       2.48819976      -2.65823478       0.46225978       0.00000000
Si       0.34712361      -1.52842554       3.35829903       0.00000000
Si       2.58587460      -1.14995997       2.46057964       0.00000000
Si      -2.53844531      -0.34296966      -2.76752261       0.00000000
Si       0.24296535       2.44136456      -2.88072487       0.00000000
