10
Lattice="16.28999089631971 0.0 0.0 0.0 16.28999089631971 0.0 0.0 0.0 34.49183129400761" Properties=species:S:1:pos:R:3:initial_magmoms:R:1 pbc="T T T"
Si      -0.87482187       0.97174152      -1.94475401       0.00000000
Si      -1.07455193      -2.08767753       0.05418670       0.00000000
Si       2.26901781       0.14358006      -0.61371350       0.00000000
Si      -0.14226057       1.05268491       2.10690020       0.00000000
Si       0.53572923       0.02362050      -3.63219882       0.00000000
Si       2.68367976       2.52088469      -0.61450681       0.00000000
Si       0.17374914      -3.44725722      -1.51136391       0.00000000
Si      -3.28457618      -1.65045393      -0.91410302       0.00000000
Si      -0.49687758       3.28729661      -1.83744986       0.00000000
Si      -2.31858665       0.69599907       2.92797870       0.00000000
