10
Lattice="10.86 0.0 0.0 0.0 10.86 0.0 0.0 0.0 10.86" Properties=species:S:1:pos:R:3:initial_magmoms:R:1 pbc="T T T"
Si      -1.52583000       1.18480428      -1.38223908       0.00000000
Si       1.18917000      -1.53019572      -1.38223908       0.00000000
Si      -1.52583000      -1.53019572       1.33276092       0.00000000
Si       2.45992032      -0.25069224      -2.74984974       0.00000000
Si       2.52391830       2.72252598      -0.17010018       0.00000000
Si      -0.17269572       2.45451204      -2.78766426       0.00000000
Si      -0.29514222       2.54348802       2.69614704       0.00000000
Si       2.56544694      -0.16954632       2.74220430       0.00000000
Si      -2.88333000       2.54230428      -0.02473908       0.00000000
Si       2.54667000      -2.88769572      -0.02473908       0.00000000
