10
Lattice="10.86 0.0 0.0 0.0 10.86 0.0 0.0 0.0 10.86" Properties=species:S:1:pos:R:3:initial_magmoms:R:1 pbc="T T T"
Si      -1.35790182       1.35140754      -1.33074096       0.00000000
Si       1.35709818      -1.36359246      -1.33074096       0.00000000
Si       1.35709818       1.35140754       1.38425904       0.00000000
Si      -1.42874160      -1.33142514       1.34253492       0.00000000
Si      -0.02315352      -2.54087076       2.59639794       0.00000000
Si      -2.58155232       0.00092310       2.77218876       0.00000000
Si      -0.00040182       2.70890754      -2.68824096       0.00000000
Si       2.71459818      -0.00609246      -2.68824096       0.00000000
Si      -2.71540182      -0.00609246      -2.68824096       0.00000000
Si      -0.00040182      -2.72109246      -2.68824096       0.00000000
