10
Lattice="16.290000149 0.0 0.0 0.0 16.290000149 0.0 0.0 0.0 29.1751946751" Properties=species:S:1:pos:R:3:initial_magmoms:R:1 pbc="T T T"
Si       1.08243793      -1.42009705      -1.49805872       0.00000000
Si      -1.54469926       1.32369283      -1.18684692       0.00000000
Si      -1.05494041      -1.76339252       1.18159538       0.00000000
Si       2.12789756       0.97006951       0.67820658       0.00000000
Si       0.22203270       0.80708806       3.38470186       0.00000000
Si       2.37737891      -2.71414208      -0.07147923       0.00000000
Si      -0.20211003       2.70340697      -2.49981821       0.00000000
Si       2.49667058      -0.09332541      -2.73724594       0.00000000
Si      -1.39942504      -0.88091434       3.31675283       0.00000000
Si       0.54661096      -3.53981703       1.09269857       0.00000000
