10
Lattice="16.290000149 0.0 0.0 0.0 16.290000149 0.0 0.0 0.0 29.1751946751" Properties=species:S:1:pos:R:3:initial_magmoms:R:1 pbc="T T T"
Si       1.31025358       1.35980776       1.34656361       0.00000000
Si      -1.37394748       1.26675928      -1.41727261       0.00000000
Si       1.29011914      -1.44971227      -1.32584338       0.00000000
Si      -1.42747642      -1.38956959       1.28290333       0.00000000
Si      -2.18155682      -0.59430808      -2.59614449       0.00000000
Si      -0.55052056      -2.32986098      -2.51145327       0.00000000
Si       2.61799850       2.64955223      -0.12447889       0.00000000
Si       2.62765847      -0.03275919       2.68719298       0.00000000
Si      -0.10871946       2.69143382       2.64777729       0.00000000
Si       2.53511498      -2.82193302       0.08998797       0.00000000
