10
Lattice="16.290000149 0.0 0.0 0.0 16.290000149 0.0 0.0 0.0 29.1751946751" Properties=species:S:1:pos:R:3:initial_magmoms:R:1 pbc="T T T"
Si       0.43285788      -0.25257645       2.28438711       0.00000000
Si      -1.70701283       1.64392165       0.10520575       0.00000000
Si      -0.05144382      -2.29276865      -0.67170051       0.00000000
Si       1.86958703       0.89544502      -1.27758177       0.00000000
H       -0.91259839       0.15719850      -2.54944521       0.00000000
Si       2.14653332      -2.67776651       0.13881558       0.00000000
Si      -0.32373117       3.37753605      -0.81413381       0.00000000
Si       2.06389415      -1.98812936       2.36907832       0.00000000
Si      -3.75880350       0.66010339      -0.63059266       0.00000000
Si       3.46108746       1.70797394       0.28725897       0.00000000
