10
Lattice="16.290000149 0.0 0.0 0.0 16.290000149 0.0 0.0 0.0 29.1751946751" Properties=species:S:1:pos:R:3:initial_magmoms:R:1 pbc="T T T"
Si      -1.50083029      -1.36194175       1.16088100       0.00000000
Si       1.39173616      -1.35342208      -1.31346726       0.00000000
Si       1.33936381       1.28734984       1.43078072       0.00000000
Si      -1.34319196       1.34653141      -1.38255413       0.00000000
H       -0.85851559      -2.20429766       2.24100505       0.00000000
Si      -0.00842193      -2.72331335      -2.62821824       0.00000000
Si       2.69000030       2.67178808       0.07588468       0.00000000
Si      -2.93107602      -0.13517442       2.44730285       0.00000000
Si       2.74504422      -2.66344760       0.11255790       0.00000000
Si       2.73158867      -0.00469152      -2.68548914       0.00000000
