10
Lattice="16.290000149 0.0 0.0 0.0 16.290000149 0.0 0.0 0.0 29.1751946751" Properties=species:S:1:pos:R:3:initial_magmoms:R:1 pbc="T T T"
Si       1.42099952       1.43798347       1.16668686       0.00000000
Si       1.43636262      -1.24379038      -1.36767478       0.00000000
Si      -1.29122686       1.41524263      -1.35804696       0.00000000
Si      -1.63745452      -1.05854050       1.43226866       0.00000000
H        0.24829870      -2.70096347       1.69548726       0.00000000
H       -1.09773424       1.40382334       2.80496157       0.00000000
Si      -0.06706593       2.51372621       2.59131162       0.00000000
Si      -2.62488917       2.48355713       0.26345201       0.00000000
Si      -3.31369554       0.62136577       1.68489667       0.00000000
Si       0.07709291      -2.65264733      -2.68160884       0.00000000
