10
Lattice="16.290000149 0.0 0.0 0.0 16.290000149 0.0 0.0 0.0 29.1751946751" Properties=species:S:1:pos:R:3:initial_magmoms:R:1 pbc="T T T"
Si       1.34649883       1.35703846       1.36192726       0.00000000
Si      -1.35132067       1.36827856      -1.35568377       0.00000000
Si      -1.36055710      -1.34501644       1.37164260       0.00000000
Si       1.37845981      -1.34832331      -1.35043224       0.00000000
Si      -0.04971708      -2.75400372      -2.58996956       0.00000000
Si       2.67675653      -2.69860142       0.06821161       0.00000000
Si      -0.02378340       2.72029970       2.69765520       0.00000000
Si      -2.67045230       0.02671560      -2.74933906       0.00000000
Si       2.69221574      -0.00268785       2.73050647       0.00000000
Si       2.69721677       2.73268011       0.01444172       0.00000000
