10
Lattice="16.290000149 0.0 0.0 0.0 16.290000149 0.0 0.0 0.0 29.1751946751" Properties=species:S:1:pos:R:3:initial_magmoms:R:1 pbc="T T T"
Si       1.37808514       1.31891986      -1.36353190       0.00000000
Si      -1.37332846      -1.32525667      -1.36478643       0.00000000
Si       1.35607735      -1.37041255       1.33884968       0.00000000
Si      -1.36945144       1.37958382       1.32140292       0.00000000
Si      -0.05608647       2.63857277      -2.64592758       0.00000000
Si       0.04564458      -2.65688273      -2.66600011       0.00000000
Si       2.72647362      -0.01024641       2.66777980       0.00000000
Si      -2.72899856       0.01682757       2.66565001       0.00000000
Si      -0.01510083       2.73163754       2.68335935       0.00000000
Si       0.00021177      -2.72601749       2.69625479       0.00000000
