10
Lattice="16.290000149 0.0 0.0 0.0 16.290000149 0.0 0.0 0.0 29.1751946751" Properties=species:S:1:pos:R:3:initial_magmoms:R:1 pbc="T T T"
Si      -1.34451145       1.35376417       1.34294821       0.00000000
Si       1.39395160      -1.42921945       1.22608756       0.00000000
Si       1.40292739       1.22658814      -1.42468311       0.00000000
Si      -1.50447925      -1.28156689      -1.28753052       0.00000000
H        0.52090533       2.08036334      -2.31228005       0.00000000
Si       2.70544322       0.01457955       2.59623639       0.00000000
Si      -2.56139075       2.76933261      -0.10611018       0.00000000
Si      -2.66657528      -0.04812066       2.68622728       0.00000000
Si       2.42963723      -0.26259480      -2.89718436       0.00000000
Si       0.06885783      -2.81196354       2.60297878       0.00000000
