10
Lattice="16.290000149 0.0 0.0 0.0 16.290000149 0.0 0.0 0.0 29.1751946751" Properties=species:S:1:pos:R:3:initial_magmoms:R:1 pbc="T T T"
Si       0.90191215       0.07094295      -1.22112777       0.00000000
H       -1.29072187      -1.74917135      -0.42919629       0.00000000
H        1.89089435       0.42635817       1.23979990       0.00000000
Si      -1.82764028      -2.00832896       0.95531257       0.00000000
Si       1.17928198       2.94664111       0.24696802       0.00000000
Si       0.01138671       1.49003002      -2.81453103       0.00000000
Si       1.23544990      -2.05066667      -2.15234164       0.00000000
Si       2.78795208       1.41338557      -0.83312686       0.00000000
Si      -2.67928148      -0.13598892       2.07245995       0.00000000
H       -2.89214292      -0.91846279      -1.60413973       0.00000000
