10
Lattice="16.290000149 0.0 0.0 0.0 16.290000149 0.0 0.0 0.0 29.1751946751" Properties=species:S:1:pos:R:3:initial_magmoms:R:1 pbc="T T T"
H        1.29557629       0.53864514       0.93611530       0.00000000
Si       1.24194961      -1.83897812      -0.68669656       0.00000000
Si      -1.02543922       1.34543998      -1.61429270       0.00000000
Si      -1.79027102      -0.57577006       1.44551420       0.00000000
H        0.96045841       1.24263379      -2.68359276       0.00000000
Si      -2.10367433       2.46047420       0.24603442       0.00000000
Si      -1.78790897      -0.69781474      -2.62775143       0.00000000
Si       2.47072061       1.11045673       1.97046347       0.00000000
Si      -0.29618478      -2.56859093      -2.28272558       0.00000000
Si      -2.86995594      -2.32987727       0.38134897       0.00000000
