10
Lattice="16.290000149 0.0 0.0 0.0 16.290000149 0.0 0.0 0.0 29.1751946751" Properties=species:S:1:pos:R:3:initial_magmoms:R:1 pbc="T T T"
Si      -1.43041677       1.21394710      -1.38459639       0.00000000
Si       1.14422590      -1.42514695      -1.46579096       0.00000000
Si      -1.47732871      -1.20484099       1.38754308       0.00000000
Si       1.50415345       1.34311051       1.30007585       0.00000000
H        0.04124628      -2.67442706       0.75117374       0.00000000
H       -2.61848069      -0.24322599       1.67856565       0.00000000
H        2.05455998      -2.32573961      -0.66335640       0.00000000
Si      -0.17505234      -1.05652054       3.40923820       0.00000000
Si      -0.06457356       2.64357380      -2.68458471       0.00000000
Si      -2.86677939       2.45773748      -0.01692161       0.00000000
