10
Lattice="16.290000149 0.0 0.0 0.0 16.290000149 0.0 0.0 0.0 29.1751946751" Properties=species:S:1:pos:R:3:initial_magmoms:R:1 pbc="T T T"
Si       1.44588412      -1.19423620      -1.35368760       0.00000000
Si      -1.34036728      -1.46390086       1.23889605       0.00000000
Si      -1.35285356       1.24211251      -1.46192758       0.00000000
Si       1.42666192       1.35938422       1.28032483       0.00000000
Si      -2.70023042      -0.01756062       2.53781073       0.00000000
Si       0.09084933      -2.53930151      -2.69793470       0.00000000
Si      -2.50847790       2.81723123      -0.14169167       0.00000000
Si       0.09935271       2.67146228       2.70478328       0.00000000
Si       2.75566530      -0.03622896       2.65061370       0.00000000
Si       2.72671796      -2.68736132      -0.01439300       0.00000000
