10
Lattice="16.290000149 0.0 0.0 0.0 16.290000149 0.0 0.0 0.0 29.1751946751" Properties=species:S:1:pos:R:3:initial_magmoms:R:1 pbc="T T T"
Si      -1.32730921       1.31207806       1.42445846       0.00000000
Si      -1.42666192      -1.35938422      -1.28032483       0.00000000
Si       1.32900337      -1.39561318       1.37028887       0.00000000
Si       1.33711579       1.36567900      -1.40640776       0.00000000
Si       0.01922220      -2.55362042      -2.63401243       0.00000000
Si       2.63707409       2.64321217       0.10272294       0.00000000
Si      -2.60006484       2.69493943       0.04167093       0.00000000
Si      -2.73670862      -0.08138484       2.68305010       0.00000000
Si       2.66851379      -0.07486884       2.77606062       0.00000000
Si       2.71313210      -2.75193489       0.04853877       0.00000000
