10
Lattice="16.290000149 0.0 0.0 0.0 16.290000149 0.0 0.0 0.0 29.1751946751" Properties=species:S:1:pos:R:3:initial_magmoms:R:1 pbc="T T T"
Si       1.24499584      -1.37222074       1.41583135       0.00000000
Si      -1.29011914       1.44971227       1.32584338       0.00000000
Si       1.91469404       0.78066568      -1.11863531       0.00000000
Si      -1.84063970      -0.88014871      -1.18560989       0.00000000
H        0.70729552      -1.81600922      -1.91868917       0.00000000
Si       1.25840251       1.21476160      -3.24817362       0.00000000
Si       2.66677076       0.05892093       2.64705374       0.00000000
Si      -2.71759556       0.06014268       2.60874671       0.00000000
Si      -3.47167596       0.85540420      -1.27030111       0.00000000
Si       2.73963593      -2.62290342       0.14708674       0.00000000
