10
Lattice="16.290000149 0.0 0.0 0.0 16.290000149 0.0 0.0 0.0 29.1751946751" Properties=species:S:1:pos:R:3:initial_magmoms:R:1 pbc="T T T"
Si       1.38844558       1.43505127      -1.18022415       0.00000000
Si       1.70184890      -1.60119298       0.01925563       0.00000000
Si      -0.96557347       1.27260739       1.74963642       0.00000000
Si      -1.59150043      -0.81252892      -1.56484074       0.00000000
Si      -2.07081740       1.21792186      -2.62317093       0.00000000
Si      -0.17723520       2.71902908      -2.30212709       0.00000000
Si       0.62216398      -3.35530020      -1.04490960       0.00000000
Si      -2.41290740       2.69702129       0.53405194       0.00000000
Si      -0.29315484      -2.31458096      -2.88566015       0.00000000
Si       2.35814042      -2.03528891       2.14879393       0.00000000
