10
Lattice="16.290000149 0.0 0.0 0.0 16.290000149 0.0 0.0 0.0 29.1751946751" Properties=species:S:1:pos:R:3:initial_magmoms:R:1 pbc="T T T"
Si       1.70701283      -1.64392165      -0.10520575       0.00000000
Si      -2.05179068      -0.98381827      -0.73579841       0.00000000
Si       1.38328165       1.73361440      -0.91933956       0.00000000
Si      -1.02574873       1.22945518       1.84153829       0.00000000
H        0.79441444      -1.48672315      -2.65465096       0.00000000
H       -0.61067953       0.54621999      -3.11372265       0.00000000
Si       2.13987071      -1.89649811       2.17918136       0.00000000
Si      -2.38251352       2.64003887       0.52859618       0.00000000
Si      -3.49167031       0.93950947      -0.72310720       0.00000000
Si       3.57659985      -0.74847664      -1.38278753       0.00000000
