10
Lattice="16.290000149 0.0 0.0 0.0 16.290000149 0.0 0.0 0.0 29.1751946751" Properties=species:S:1:pos:R:3:initial_magmoms:R:1 pbc="T T T"
Si       1.38445453       1.35967744      -1.30664027       0.00000000
Si       1.38158749      -1.34643367       1.33587381       0.00000000
Si      -1.31813794       1.36998901       1.38885597       0.00000000
Si      -1.33113736      -1.34439742      -1.41447179       0.00000000
Si       0.01334151       2.72028341      -2.61809444       0.00000000
Si       0.01355328      -2.69053787       2.67877885       0.00000000
Si      -2.67745538      -2.69179220      -0.04443382       0.00000000
Si      -2.66442989       2.73093219       0.03410580       0.00000000
Si       2.70793559       0.01009980      -2.69319140       0.00000000
Si      -2.69346193       0.02173086       2.73975501       0.00000000
