10
Lattice="16.290000149 0.0 0.0 0.0 16.290000149 0.0 0.0 0.0 29.1751946751" Properties=species:S:1:pos:R:3:initial_magmoms:R:1 pbc="T T T"
Si       1.34807896       1.40046760      -1.32320594       0.00000000
Si      -1.35148357       1.36671472       1.36128541       0.00000000
Si       1.37525068      -1.34957764       1.35941820       0.00000000
Si      -1.36187659      -1.36718713      -1.36317304       0.00000000
Si       2.73220770       0.04414590      -2.64495605       0.00000000
Si      -2.70548884      -2.69350265       0.02395283       0.00000000
Si       2.68758938       2.72121194       0.08256580       0.00000000
Si      -2.69780159       0.01931994       2.73132338       0.00000000
Si       0.02138877      -2.69404022       2.73648738       0.00000000
Si      -2.71763303       2.71469594      -0.01044472       0.00000000
