10
Lattice="16.290000149 0.0 0.0 0.0 16.290000149 0.0 0.0 0.0 29.1751946751" Properties=species:S:1:pos:R:3:initial_magmoms:R:1 pbc="T T T"
Si      -1.32923143       1.35803215       1.36598261       0.00000000
Si       1.37438731      -1.33907059       1.36227736       0.00000000
Si       1.41033934       1.40833567      -1.25521315       0.00000000
Si      -1.42177492      -1.43114167      -1.23122239       0.00000000
Si       0.07286517      -2.68182435      -2.49996700       0.00000000
Si       2.67801086       0.00811242      -2.61446797       0.00000000
Si      -2.66677076      -0.05892093      -2.64705374       0.00000000
Si       0.04833243       2.72153774       2.67253536       0.00000000
Si      -2.64663632       2.75059911       0.02535324       0.00000000
Si       0.09500328       2.66836718      -2.73056774       0.00000000
