10
Lattice="16.290000149 0.0 0.0 0.0 16.290000149 0.0 0.0 0.0 29.1751946751" Properties=species:S:1:pos:R:3:initial_magmoms:R:1 pbc="T T T"
Si       1.38869808      -1.34985457       1.32974702       0.00000000
Si       1.37532399       1.34825815      -1.35089904       0.00000000
Si      -1.31515808      -1.36580248      -1.39317390       0.00000000
Si      -1.36994829       1.33942897       1.37975331       0.00000000
Si      -2.66275528      -2.72052776      -0.03658569       0.00000000
Si       0.02924707      -2.70094718       2.68321348       0.00000000
Si      -2.70230740       2.70549209       0.00755638       0.00000000
Si       0.02903204       2.70920133      -2.70564920       0.00000000
Si      -2.68407889      -0.01016496      -2.73418254       0.00000000
Si       2.70701521      -2.71226873      -0.06097616       0.00000000
