10
Lattice="16.290000149 0.0 0.0 0.0 16.290000149 0.0 0.0 0.0 29.1751946751" Properties=species:S:1:pos:R:3:initial_magmoms:R:1 pbc="T T T"
Si      -1.35063649      -1.38443824       1.35489604       0.00000000
Si       1.38592063      -1.35021295      -1.35393326       0.00000000
Si       1.40934565       1.36177885       1.32006086       0.00000000
Si      -1.33200073       1.31582476      -1.44192565       0.00000000
Si      -2.69000030      -2.67178808      -0.07588468       0.00000000
H       -1.10983771       2.94050793       2.14108001       0.00000000
Si       2.70057251      -0.05346378       2.67810782       0.00000000
Si       0.07568334       2.43009335       2.94155983       0.00000000
Si       2.72741843       2.68923467      -0.12186479       0.00000000
Si       0.04158837      -2.67647960      -2.76137383       0.00000000
