10
Lattice="16.290000149 0.0 0.0 0.0 16.290000149 0.0 0.0 0.0 29.1751946751" Properties=species:S:1:pos:R:3:initial_magmoms:R:1 pbc="T T T"
Si      -1.37078722       1.34633593       1.33797443       0.00000000
Si      -1.38624643      -1.34957764      -1.32432044       0.00000000
Si       1.36179514      -1.36549297       1.33666154       0.00000000
Si       1.37059174       1.35751087      -1.33867463       0.00000000
Si       0.00775404       2.68094306       2.68295090       0.00000000
Si      -0.05745483      -2.77013244      -2.60948776       0.00000000
Si      -0.00316026      -2.71378696       2.68499317       0.00000000
Si       2.69982317      -0.00052128      -2.70465725       0.00000000
Si      -2.72047889      -0.01912446       2.69392078       0.00000000
Si       2.72269433      -0.02257794       2.69960994       0.00000000
