10
Lattice="16.290000149 0.0 0.0 0.0 16.290000149 0.0 0.0 0.0 29.1751946751" Properties=species:S:1:pos:R:3:initial_magmoms:R:1 pbc="T T T"
Si       1.91840816      -1.05751097       0.78049481       0.00000000
Si      -1.25864686      -1.31775187      -1.46783322       0.00000000
Si       1.15887061       1.44307736      -1.50158892       0.00000000
Si      -0.96959710       0.40206490       2.15210824       0.00000000
H       -1.87864427       1.96900001       0.65620848       0.00000000
Si       0.04961934       2.55570066       2.54518563       0.00000000
Si      -2.60400539      -2.61108014      -0.09843711       0.00000000
Si       3.66326265      -0.73506671      -0.71365444       0.00000000
Si       2.67889052       0.12598197      -2.69902643       0.00000000
Si       2.59861340       2.77221105      -0.29046824       0.00000000
