10
Lattice="16.290000149 0.0 0.0 0.0 16.290000149 0.0 0.0 0.0 29.1751946751" Properties=species:S:1:pos:R:3:initial_magmoms:R:1 pbc="T T T"
Si       1.36091548      -1.35291709       1.35200770       0.00000000
Si      -1.36212094       1.36280512       1.34520988       0.00000000
Si       1.35029440       1.38870622      -1.33383155       0.00000000
Si      -1.34806267      -1.38811978      -1.33812030       0.00000000
Si      -2.78137092      -0.04183435      -2.60093943       0.00000000
Si       0.00118917      -2.71702541       2.69354150       0.00000000
Si       2.79296940       0.05570040      -2.61485600       0.00000000
Si      -0.00122175       2.70572015       2.70815827       0.00000000
Si      -2.72707635       0.01451113       2.69354150       0.00000000
Si      -0.02409291       2.72777681      -2.69610892       0.00000000
