10
Lattice="16.290000149 0.0 0.0 0.0 16.290000149 0.0 0.0 0.0 29.1751946751" Properties=species:S:1:pos:R:3:initial_magmoms:R:1 pbc="T T T"
Si      -1.32942545       1.41056740      -1.30984954       0.00000000
Si       1.33621479       1.37596744       1.34389699       0.00000000
Si       1.35193953      -1.32554989      -1.40542748       0.00000000
Si      -1.38430646      -1.33330393       1.36729550       0.00000000
Si      -2.71831086       0.06555096      -2.58665234       0.00000000
Si       2.64408026      -2.68084532       0.02465304       0.00000000
Si       2.67894086       0.01674612       2.70632023       0.00000000
Si       2.66706545       2.73386927      -0.04002837       0.00000000
Si      -0.05209395       2.73354348       2.67002629       0.00000000
Si      -2.75426289      -2.68185530       0.03083818       0.00000000
