10
Lattice="16.290000149 0.0 0.0 0.0 16.290000149 0.0 0.0 0.0 29.1751946751" Properties=species:S:1:pos:R:3:initial_magmoms:R:1 pbc="T T T"
Si       1.38979765       1.26550495       1.38513000       0.00000000
Si      -1.58632836       1.25602417      -1.19369463       0.00000000
Si       1.25086024      -1.34233185      -1.49104821       0.00000000
Si      -1.33659614      -1.40157206       1.36061992       0.00000000
Si      -2.88518709      -0.78315805      -1.66913360       0.00000000
Si      -2.67167112      -2.63866449      -0.10306750       0.00000000
Si      -0.03290580       2.64839564       2.66724852       0.00000000
Si       2.60058449      -2.73083249      -0.08745877       0.00000000
Si       2.58782942      -0.13232367       2.82661802       0.00000000
Si       3.26192592       2.06861825       0.18710753       0.00000000
