10
Lattice="16.290000149 0.0 0.0 0.0 16.290000149 0.0 0.0 0.0 29.1751946751" Properties=species:S:1:pos:R:3:initial_magmoms:R:1 pbc="T T T"
Si       1.42096042       1.30958569       1.31317551       0.00000000
Si       1.37899738      -1.34773687      -1.32029426       0.00000000
Si      -1.34850250      -1.35819505       1.35297048       0.00000000
Si      -1.36257706       1.39414708      -1.30471471       0.00000000
Si       0.05867658       2.67939551       2.57465258       0.00000000
Si       0.00860112      -2.70790301      -2.64922438       0.00000000
Si       2.73038321       0.04421106      -2.64639438       0.00000000
Si      -2.71692767       0.04209336      -2.66667114       0.00000000
Si       0.01080027       2.73781146      -2.64665696       0.00000000
Si       2.73572634      -2.67690314       0.06719047       0.00000000
