10
Lattice="16.290000149 0.0 0.0 0.0 16.290000149 0.0 0.0 0.0 29.1751946751" Properties=species:S:1:pos:R:3:initial_magmoms:R:1 pbc="T T T"
Si       1.35945101       1.35109261      -1.35346646       0.00000000
Si       1.37020241      -1.34350147       1.35632563       0.00000000
Si      -1.33890839       1.36277254       1.37225528       0.00000000
Si      -1.34874522      -1.37754757      -1.35124914       0.00000000
Si      -2.68750631      -0.04867452       2.67729091       0.00000000
Si       2.66949282      -2.70019784      -0.06141378       0.00000000
Si      -0.02924707       2.70094718      -2.68321348       0.00000000
Si      -2.69200235      -0.01958058      -2.71979917       0.00000000
Si       2.67776814      -0.01132155      -2.74418964       0.00000000
Si       2.72730603       0.03780909       2.70597013       0.00000000
