10
Lattice="16.290000149 0.0 0.0 0.0 16.290000149 0.0 0.0 0.0 29.1751946751" Properties=species:S:1:pos:R:3:initial_magmoms:R:1 pbc="T T T"
Si       1.35211888       1.35475786       1.35871799       0.00000000
Si       1.38830875      -1.35757603      -1.32612930       0.00000000
Si      -1.33880995      -1.35715249       1.37972413       0.00000000
Si      -1.34674318       1.38021913      -1.35285378       0.00000000
Si      -2.69097770       2.71285517       0.03156756       0.00000000
Si       0.05209395      -2.73354348      -2.67002629       0.00000000
Si       2.69120576      -0.00496845       2.72087866       0.00000000
Si      -2.70425405       0.03422529      -2.70976291       0.00000000
Si       2.71024877       2.70731657      -0.00399700       0.00000000
Si      -2.69812901      -2.72051147       0.04723464       0.00000000
