10
Lattice="16.290000149 0.0 0.0 0.0 16.290000149 0.0 0.0 0.0 29.1751946751" Properties=species:S:1:pos:R:3:initial_magmoms:R:1 pbc="T T T"
Si       1.31372335      -1.42055317      -1.30019984       0.00000000
Si       1.41307606       1.29481066       1.34325660       0.00000000
Si      -1.29455002      -1.48709782       1.27598443       0.00000000
Si      -1.28083384       1.49312512      -1.33929461       0.00000000
Si       2.57517209       0.06136443      -2.63050120       0.00000000
Si      -2.68100822      -0.11652237       2.62503960       0.00000000
Si       0.02894733       2.65113236       2.66500670       0.00000000
Si      -2.63586863       0.14805981      -2.68354170       0.00000000
Si      -0.05818788      -2.44801235      -2.93564456       0.00000000
Si      -2.72671796       2.68736132       0.01439300       0.00000000
