10
Lattice="16.290000149 0.0 0.0 0.0 16.290000149 0.0 0.0 0.0 29.1751946751" Properties=species:S:1:pos:R:3:initial_magmoms:R:1 pbc="T T T"
Si      -1.36996784       1.23909886      -1.44516409       0.00000000
Si       1.19843902      -1.40063050      -1.47641073       0.00000000
Si      -1.36584321      -1.42962670       1.29998832       0.00000000
Si       1.43580061       1.40949226       1.31609303       0.00000000
Si      -0.07017732       2.74198170       2.56406198       0.00000000
Si       2.55353897      -2.75791332      -0.17242540       0.00000000
Si       0.06457356      -2.64357380       2.68458471       0.00000000
Si      -2.77535991       2.55686213      -0.13230951       0.00000000
Si       2.73715986       2.64691325      -0.18406630       0.00000000
Si      -0.03940551       2.63713925      -2.78809830       0.00000000
