10
Lattice="16.290000149 0.0 0.0 0.0 16.290000149 0.0 0.0 0.0 29.1751946751" Properties=species:S:1:pos:R:3:initial_magmoms:R:1 pbc="T T T"
Si      -1.41596428       1.22388400      -1.37829455       0.00000000
Si      -1.31102899      -1.48983454       1.27028798       0.00000000
Si       1.50597793      -1.33248943      -1.24796895       0.00000000
Si       0.66419218       1.87931216       1.29371566       0.00000000
Si       0.04872339       2.60597648      -2.59457924       0.00000000
Si       0.25348869      -2.56459988       2.63507441       0.00000000
Si      -2.75867895       2.52553646       0.04312094       0.00000000
Si       0.07017732      -2.74198170      -2.56406198       0.00000000
Si      -2.70518258      -0.18511956      -2.69637149       0.00000000
Si      -0.98824915       3.53256798       1.19594958       0.00000000
