10
Lattice="16.290000149 0.0 0.0 0.0 16.290000149 0.0 0.0 0.0 29.1751946751" Properties=species:S:1:pos:R:3:initial_magmoms:R:1 pbc="T T T"
Si       2.26748005      -0.49575357       0.10275504       0.00000000
Si      -0.29805813       0.76317348       2.20538214       0.00000000
Si      -0.57016630       1.72816376      -1.53414844       0.00000000
Si      -1.52467885      -1.85414411      -0.43815307       0.00000000
H       -1.39510819       1.83551486       2.17816168       0.00000000
Si       2.53897571      -1.32002758      -2.05022846       0.00000000
Si      -1.11203686      -1.20076849       3.20232772       0.00000000
Si      -2.67416642      -1.98436637       1.61852310       0.00000000
Si      -2.56507229       2.61591338      -0.56232270       0.00000000
Si      -3.05287635      -0.85933009      -1.94385570       0.00000000
