10
Lattice="16.290000149 0.0 0.0 0.0 16.290000149 0.0 0.0 0.0 29.1751946751" Properties=species:S:1:pos:R:3:initial_magmoms:R:1 pbc="T T T"
Si      -1.41307606      -1.29481066      -1.34325660       0.00000000
Si      -1.38412873       1.35632170       1.32175010       0.00000000
Si       1.32206383       1.40188483      -1.34327906       0.00000000
Si       1.37015191      -1.41468877       1.30449297       0.00000000
Si       2.62780508       2.57841380       0.21382500       0.00000000
Si       2.66657528       0.04812066      -2.68622728       0.00000000
Si      -0.09935271      -2.71536383      -2.64345644       0.00000000
Si      -2.73220770      -0.04414590       2.64495605       0.00000000
Si      -2.69390990       0.19831446      -2.68255120       0.00000000
Si      -0.04461831       2.67706604       2.72752185       0.00000000
