10
Lattice="16.290000149 0.0 0.0 0.0 16.290000149 0.0 0.0 0.0 29.1751946751" Properties=species:S:1:pos:R:3:initial_magmoms:R:1 pbc="T T T"
Si      -1.49079565       1.26547237       1.28271661       0.00000000
Si       1.29478672       1.35913987      -1.44510574       0.00000000
Si      -1.42783480      -1.26998470      -1.40493150       0.00000000
Si       1.29034280      -1.34807896       1.50021769       0.00000000
H        1.46599250       1.31082373       2.93199036       0.00000000
Si      -2.88541515      -0.55517950       2.03111870       0.00000000
Si      -2.77627215      -2.28962468       0.22765404       0.00000000
Si       2.50508763      -2.63408162      -0.10634358       0.00000000
Si       2.60714448       0.34920873       2.64096780       0.00000000
Si       2.65405642       2.76799683      -0.13117168       0.00000000
