10
Lattice="16.290000149 0.0 0.0 0.0 16.290000149 0.0 0.0 0.0 29.1751946751" Properties=species:S:1:pos:R:3:initial_magmoms:R:1 pbc="T T T"
Si      -1.34690608      -1.32724405      -1.39415710       0.00000000
Si      -1.34263810       1.30549690       1.42237827       0.00000000
Si       1.30557835       1.35285193      -1.43101996       0.00000000
Si       1.35034327      -1.38031687       1.36280252       0.00000000
Si      -2.69029352       2.64899837       0.05884637       0.00000000
Si       2.69576208       2.64841193      -0.00545576       0.00000000
Si       2.66544150      -0.09348831      -2.72993464       0.00000000
Si      -2.68820840      -2.74579356      -0.03445590       0.00000000
Si       0.01550808       2.65639403       2.78631862       0.00000000
Si       2.71559352      -0.04696407       2.73631233       0.00000000
