10
Lattice="16.290000149 0.0 0.0 0.0 16.290000149 0.0 0.0 0.0 29.1751946751" Properties=species:S:1:pos:R:3:initial_magmoms:R:1 pbc="T T T"
Si      -1.33289668      -1.35430174      -1.38293340       0.00000000
Si       1.33235911      -1.36606312       1.37219693       0.00000000
Si      -1.37057545       1.33991767       1.36528241       0.00000000
Si       1.35146728       1.35185824      -1.37275126       0.00000000
Si       0.00324171       2.72248256       2.67551123       0.00000000
Si      -2.69503391       2.70433550      -0.02678283       0.00000000
Si       2.70373929       0.00547507       2.70182725       0.00000000
Si       2.70230740      -2.70549209      -0.00755638       0.00000000
Si      -2.69262299      -2.71841006      -0.04139960       0.00000000
Si      -2.69381216      -0.00138465      -2.73494110       0.00000000
