10
Lattice="16.290000149 0.0 0.0 0.0 16.290000149 0.0 0.0 0.0 29.1751946751" Properties=species:S:1:pos:R:3:initial_magmoms:R:1 pbc="T T T"
Si       1.34423452      -1.33263604      -1.38442134       0.00000000
Si      -1.36435267       1.33854931      -1.36347355       0.00000000
Si      -1.35138583      -1.39194793       1.32610012       0.00000000
Si       1.37187865       1.34840476       1.35387491       0.00000000
Si      -2.73038321      -0.04421106       2.64639438       0.00000000
Si       2.69097770      -2.71285517      -0.03156756       0.00000000
Si      -2.69977430      -0.06278166      -2.70521158       0.00000000
Si      -2.71958294       2.69360039      -0.00026258       0.00000000
Si      -0.00759114       2.70787043      -2.70766229       0.00000000
Si       0.02748123       2.71368596       2.70378199       0.00000000
