10
Lattice="16.290000149 0.0 0.0 0.0 16.290000149 0.0 0.0 0.0 29.1751946751" Properties=species:S:1:pos:R:3:initial_magmoms:R:1 pbc="T T T"
Si       1.31991355      -1.49248436      -1.20406612       0.00000000
Si       1.35860230       1.28007204       1.41425297       0.00000000
Si      -1.35250984      -1.39383212       1.30963073       0.00000000
Si      -1.38394954       1.32424889      -1.36370695       0.00000000
Si       2.69410538       2.61854153       0.08786110       0.00000000
Si      -2.69666291       2.64522455       0.04123914       0.00000000
Si      -2.67599090      -0.04425447       2.69618185       0.00000000
Si       0.02981070       2.70062684       2.69942030       0.00000000
Si       0.03083697      -2.75145702       2.65090195       0.00000000
Si      -2.69202026      -2.71457646      -0.09614102       0.00000000
