10
Lattice="16.290000149 0.0 0.0 0.0 16.290000149 0.0 0.0 0.0 29.1751946751" Properties=species:S:1:pos:R:3:initial_magmoms:R:1 pbc="T T T"
Si       1.33433020       1.36443738      -1.36933776       0.00000000
Si      -1.36244674      -1.34234162      -1.37683579       0.00000000
Si      -1.42465825       1.36197759       1.29885049       0.00000000
Si       1.40110291      -1.34151083       1.35924314       0.00000000
Si       2.70505226      -2.68760242      -0.07191685       0.00000000
Si       0.05851368      -2.72122498       2.67221443       0.00000000
Si       2.69539229       2.70981220      -0.00207144       0.00000000
Si      -0.13105305       2.79841351       2.61205518       0.00000000
Si      -2.72533331      -2.69304328      -0.02704541       0.00000000
Si       2.63174726       0.09158564       2.78485986       0.00000000
