10
Lattice="16.290000149 0.0 0.0 0.0 16.290000149 0.0 0.0 0.0 29.1751946751" Properties=species:S:1:pos:R:3:initial_magmoms:R:1 pbc="T T T"
Si      -1.43407387       1.32186835       1.28201640       0.00000000
Si      -1.37720548      -1.33916833      -1.33327722       0.00000000
Si       1.34850250       1.35819505      -1.35297048       0.00000000
Si       1.35721765      -1.33449310       1.37715671       0.00000000
Si      -0.00705357       2.71081892       2.46086932       0.00000000
Si       0.00123804      -2.70531290      -2.64478975       0.00000000
Si       2.72749989       0.01045818      -2.67326474       0.00000000
Si      -2.72797229       0.03753216      -2.67539453       0.00000000
Si      -0.01407456       2.75234214      -2.65768518       0.00000000
Si       0.01640403      -2.66787848       2.74984962       0.00000000
