10
Lattice="16.290000149 0.0 0.0 0.0 16.290000149 0.0 0.0 0.0 29.1751946751" Properties=species:S:1:pos:R:3:initial_magmoms:R:1 pbc="T T T"
Si      -1.02670984       1.48918294       1.47250125       0.00000000
Si       0.91505818       1.83179423      -1.17491426       0.00000000
Si      -1.33964074      -1.45676584      -1.29164422       0.00000000
Si       1.50131899      -1.31289256       1.29307380       0.00000000
H       -1.90873190       2.34295814       0.58490430       0.00000000
H        2.77192272      -1.01802727      -1.31177510       0.00000000
Si       2.31689414      -2.30009915      -0.64871045       0.00000000
Si       0.43994403      -3.00789966      -1.92214935       0.00000000
Si       0.87081454       2.80010442       2.09860093       0.00000000
Si       2.47718774       2.61539210       0.40889035       0.00000000
