10
Lattice="16.290000149 0.0 0.0 0.0 16.290000149 0.0 0.0 0.0 29.1751946751" Properties=species:S:1:pos:R:3:initial_magmoms:R:1 pbc="T T T"
Si       1.57828924      -1.08647785       1.32224900       0.00000000
Si      -1.23168691      -1.13681395      -1.62456237       0.00000000
Si      -1.60045993      -0.07341903       1.79089015       0.00000000
Si       1.29613015       1.59122350      -1.27545199       0.00000000
H        0.93239074      -1.91387954       2.39875533       0.00000000
H       -0.50683077      -2.82422991       1.85218723       0.00000000
Si      -1.71545105       2.23196623       2.02385408       0.00000000
Si      -2.64591956      -2.46358559      -0.38537515       0.00000000
Si       2.81639442      -2.45268758      -0.09464433       0.00000000
Si       0.13059693      -2.50662377      -2.88603943       0.00000000
