10
Lattice="16.290000149 0.0 0.0 0.0 16.290000149 0.0 0.0 0.0 29.1751946751" Properties=species:S:1:pos:R:3:initial_magmoms:R:1 pbc="T T T"
Si       0.64589851       0.82740169      -1.07650633       0.00000000
H       -1.43922151      -0.91035037      -0.54656810       0.00000000
H       -0.63149815      -1.66263887       1.10436864       0.00000000
Si      -2.24437106       0.95418676       1.63299400       0.00000000
Si       0.55402291      -2.17305344       1.90484846       0.00000000
Si       1.92116117       2.29012967       0.22173148       0.00000000
Si       1.88400368      -0.53880804      -2.49339966       0.00000000
Si      -2.53285067       1.84046051      -0.60786518       0.00000000
Si      -0.93239074       1.91387954      -2.39875533       0.00000000
Si      -2.28336932      -1.84375109      -1.35755098       0.00000000
