10
Lattice="16.290000149 0.0 0.0 0.0 16.290000149 0.0 0.0 0.0 29.1751946751" Properties=species:S:1:pos:R:3:initial_magmoms:R:1 pbc="T T T"
Si      -1.37111302       1.36060597      -1.31145418       0.00000000
Si      -1.38445453      -1.35967744       1.30664027       0.00000000
Si       1.32348106      -1.34957764      -1.38655113       0.00000000
Si       1.35570268       1.37102343       1.33803278       0.00000000
Si      -0.02067201       2.68947902      -2.65494272       0.00000000
Si      -0.00286704      -2.70611111       2.64251408       0.00000000
Si       2.67599090       0.04425447      -2.69618185       0.00000000
Si      -2.70259247       0.01031157       2.69549624       0.00000000
Si       2.73753453       0.01207089       2.66130291       0.00000000
Si      -0.00224802       2.72823294       2.67880802       0.00000000
