10
Lattice="16.290000149 0.0 0.0 0.0 16.290000149 0.0 0.0 0.0 29.1751946751" Properties=species:S:1:pos:R:3:initial_magmoms:R:1 pbc="T T T"
Si      -1.31025358      -1.35980776      -1.34656361       0.00000000
Si       1.31740489      -1.39256695       1.34062937       0.00000000
Si      -1.41897304       1.33162606       1.30121368       0.00000000
Si       1.30774492       1.28974447      -1.47104249       0.00000000
Si      -0.04564458       2.65688273       2.66600011       0.00000000
Si       2.69496875      -0.02906136       2.64718211       0.00000000
Si       2.67905342       2.69516423      -0.15681667       0.00000000
Si       2.64663632      -2.75059911      -0.02535324       0.00000000
Si      -2.76969099      -0.04401558       2.64869922       0.00000000
Si      -2.77060323       2.65131155      -0.10651864       0.00000000
