10
Lattice="16.290000149 0.0 0.0 0.0 16.290000149 0.0 0.0 0.0 29.1751946751" Properties=species:S:1:pos:R:3:initial_magmoms:R:1 pbc="T T T"
Si       0.68815477      -2.04977398      -0.76792030       0.00000000
Si      -0.60698170      -0.51438933       2.18329652       0.00000000
Si      -1.82071703       0.88444927      -1.14921092       0.00000000
Si       1.76459798       1.48579462      -0.32851269       0.00000000
H        1.37059174       0.25860375      -2.90474073       0.00000000
Si       0.15944652       1.53298675       3.06450410       0.00000000
Si      -2.83993347      -1.26918649      -1.54228832       0.00000000
Si       2.15681231       2.12433005       1.89615425       0.00000000
Si      -0.70196869       2.32772699      -2.69844293       0.00000000
Si       0.78403771       3.34195869      -1.22812982       0.00000000
