10
Lattice="16.290000149 0.0 0.0 0.0 16.290000149 0.0 0.0 0.0 29.1751946751" Properties=species:S:1:pos:R:3:initial_magmoms:R:1 pbc="T T T"
Si      -1.34433226      -1.32626665      -1.40744057       0.00000000
Si      -1.38592063       1.35021295       1.35393326       0.00000000
Si       1.35503479       1.34755768      -1.39331977       0.00000000
Si       1.39174480      -1.35589816       1.35043224       0.00000000
Si      -2.68418477      -2.67499721      -0.03541869       0.00000000
Si       2.66340525      -2.71669961      -0.07223778       0.00000000
Si      -2.71792136       2.66603771      -0.08799239       0.00000000
Si       0.02342502       2.71199180       2.67399412       0.00000000
Si       2.75101450       0.05295879       2.66436630       0.00000000
Si      -2.73655713      -0.03422529       2.70882930       0.00000000
