10
Lattice="16.290000149 0.0 0.0 0.0 16.290000149 0.0 0.0 0.0 29.1751946751" Properties=species:S:1:pos:R:3:initial_magmoms:R:1 pbc="T T T"
Si      -0.08263917       0.68963716       2.23026275       0.00000000
Si       0.72081622      -2.19047885      -0.40801510       0.00000000
Si       1.93671812       1.03044025      -0.89646621       0.00000000
Si      -2.19797714       0.38499786      -0.81051608       0.00000000
H        2.46529604      -0.24622335       1.49718347       0.00000000
Si       2.59320512      -1.64570215       0.90939082       0.00000000
Si      -2.14653332       2.67776651      -0.13881558       0.00000000
Si       1.47686770      -1.84310763      -2.66538744       0.00000000
Si       1.02139930       2.07115949      -2.73721676       0.00000000
Si       0.25497108       0.02378340      -3.61842434       0.00000000
