10
Lattice="16.290000149 0.0 0.0 0.0 16.290000149 0.0 0.0 0.0 29.1751946751" Properties=species:S:1:pos:R:3:initial_magmoms:R:1 pbc="T T T"
Si       1.35997066      -1.35228178      -1.35229945       0.00000000
Si       1.37433844       1.36295173       1.33237279       0.00000000
Si      -1.35351982      -1.34780203       1.37362652       0.00000000
Si      -1.35496963       1.35123922      -1.36895848       0.00000000
Si       0.00100998       2.72205902       2.65298798       0.00000000
Si       2.68442912      -2.71669961       0.03976579       0.00000000
Si      -2.71458191      -2.69317685       0.00636019       0.00000000
Si      -2.72326448       0.03922632       2.68478894       0.00000000
Si      -0.00092853      -2.69519681      -2.71524784       0.00000000
Si       2.71552673       0.02559159      -2.70786652       0.00000000
