10
Lattice="16.290000149 0.0 0.0 0.0 16.290000149 0.0 0.0 0.0 29.1751946751" Properties=species:S:1:pos:R:3:initial_magmoms:R:1 pbc="T T T"
Si       1.53813439       0.72961282       1.59602902       0.00000000
Si      -1.23624811      -1.29806866       1.50243500       0.00000000
Si       0.61087501      -1.06600132      -2.05267917       0.00000000
Si      -1.49172418       1.87077620      -0.34502585       0.00000000
H        1.78083911      -1.84639984       0.68780521       0.00000000
H        3.11057553       0.30079485      -0.99268600       0.00000000
Si      -1.88393852       1.23224077      -2.56969280       0.00000000
Si       0.29618478       2.56859093       2.28272558       0.00000000
Si       3.16873083       1.39132891       0.05184432       0.00000000
Si      -2.57377115       0.23871366       2.66407455       0.00000000
