10
Lattice="16.290000149 0.0 0.0 0.0 16.290000149 0.0 0.0 0.0 29.1751946751" Properties=species:S:1:pos:R:3:initial_magmoms:R:1 pbc="T T T"
Si      -1.37538100      -1.32167287       1.36294839       0.00000000
Si      -1.37349136       1.35291709      -1.34450967       0.00000000
Si       1.29083590      -1.36741519      -1.41181685       0.00000000
Si       1.41035563       1.32473539       1.35475016       0.00000000
Si       0.04408074      -2.69320943       2.61733589       0.00000000
Si       0.04605183       2.69381216       2.69858881       0.00000000
Si      -0.01060479       2.70361874      -2.69430005       0.00000000
Si       2.67892310      -0.00702099      -2.72487566       0.00000000
Si       2.61047252      -2.80800507      -0.13531455       0.00000000
Si      -2.73248463      -2.70298343       0.01330389       0.00000000
