10
Lattice="16.290000149 0.0 0.0 0.0 16.290000149 0.0 0.0 0.0 29.1751946751" Properties=species:S:1:pos:R:3:initial_magmoms:R:1 pbc="T T T"
Si       0.52324458      -0.65738296       2.23321528       0.00000000
Si      -2.00743301       1.36497169       0.08376198       0.00000000
Si       1.15884455       2.05729670      -0.59464882       0.00000000
Si      -1.21296970      -1.60518403      -1.41132087       0.00000000
Si       2.20141433      -1.42273603      -1.03840353       0.00000000
H       -1.03764043       1.10464120      -2.39858028       0.00000000
H       -2.65440665      -1.31562928      -0.97147563       0.00000000
H       -1.55240443       2.64704357      -0.57930267       0.00000000
Si      -0.00697212       2.21454407      -2.61223023       0.00000000
H        3.40423536      -1.05067243      -0.15740018       0.00000000
