10
Lattice="16.290000149 0.0 0.0 0.0 16.290000149 0.0 0.0 0.0 29.1751946751" Properties=species:S:1:pos:R:3:initial_magmoms:R:1 pbc="T T T"
H        1.20282103       0.37206360       0.88100335       0.00000000
Si       0.84419668       1.48677202      -1.63366503       0.00000000
Si      -0.75057968      -2.10582461       1.18156621       0.00000000
Si       0.55040653      -2.39070413      -0.73897851       0.00000000
Si      -2.20141433       1.42273603       1.03840353       0.00000000
H        2.60791499      -1.66087955       1.34007504       0.00000000
Si      -3.41438403      -0.18244800      -0.37291734       0.00000000
Si      -0.23829012      -1.15797466       3.25892760       0.00000000
H       -1.89302182      -1.57740958      -2.46965105       0.00000000
Si       1.26734572       3.30315591      -0.15048565       0.00000000
