10
Lattice="16.290000149 0.0 0.0 0.0 16.290000149 0.0 0.0 0.0 29.1751946751" Properties=species:S:1:pos:R:3:initial_magmoms:R:1 pbc="T T T"
Si      -1.39173616       1.35342208       1.31346726       0.00000000
Si       1.33985251       1.34873056      -1.37202188       0.00000000
Si      -1.40015809      -1.36989127      -1.31475097       0.00000000
Si       1.35330805      -1.31002552       1.42602517       0.00000000
Si       2.58418046      -2.74080556       0.01003627       0.00000000
Si       2.68418477       2.67499721       0.03541869       0.00000000
Si      -2.89256646      -0.00851967       2.47434826       0.00000000
Si      -0.05237235       2.64077192       2.74424799       0.00000000
Si       2.66312180      -0.02285487      -2.74477314       0.00000000
Si      -2.73492812       2.69995349      -0.06908686       0.00000000
