10
Lattice="16.290000149 0.0 0.0 0.0 16.290000149 0.0 0.0 0.0 29.1751946751" Properties=species:S:1:pos:R:3:initial_magmoms:R:1 pbc="T T T"
Si       1.35044101       1.32887305      -1.34348854       0.00000000
Si      -1.35428545       1.39527109       1.29044804       0.00000000
Si       1.37111302      -1.36060597       1.31145418       0.00000000
Si      -1.30122892      -1.32323671      -1.42669911       0.00000000
Si      -2.67777140       0.01064877       2.65220025       0.00000000
Si      -0.01334151      -2.72028341       2.61809444       0.00000000
Si       0.03960099       2.73786032       2.61812362       0.00000000
Si       2.72681570       0.01041746       2.64948695       0.00000000
Si      -2.57398455       0.05962466      -2.80948664       0.00000000
Si      -2.64642618       2.75056653      -0.13963248       0.00000000
