10
Lattice="16.290000149 0.0 0.0 0.0 16.290000149 0.0 0.0 0.0 29.1751946751" Properties=species:S:1:pos:R:3:initial_magmoms:R:1 pbc="T T T"
Si       1.79737346       1.33676556       0.60728168       0.00000000
Si      -0.75605149      -0.34737122       2.25737234       0.00000000
Si      -1.22189662       1.86689103      -0.95303691       0.00000000
Si       1.60867009      -1.53325554      -1.08009488       0.00000000
H        0.71161237      -2.52028294       0.99283187       0.00000000
H       -1.17928198      -2.94664111      -0.24696802       0.00000000
Si      -0.27736983      -2.87569816      -1.46809580       0.00000000
Si       0.45985041       2.87354788       1.76892123       0.00000000
Si      -1.47686770       1.84310763       2.66538744       0.00000000
Si      -1.16789527      -1.45661109      -3.06149905       0.00000000
