10
Lattice="16.290000149 0.0 0.0 0.0 16.290000149 0.0 0.0 0.0 29.1751946751" Properties=species:S:1:pos:R:3:initial_magmoms:R:1 pbc="T T T"
Si       1.34036728       1.46390086      -1.23889605       0.00000000
Si       1.38607702      -1.33998283       1.37175055       0.00000000
Si      -1.35986315       1.44634024       1.29891468       0.00000000
Si      -1.22073759      -1.49073049      -1.39537954       0.00000000
Si      -2.68002105      -2.67071294       0.02100031       0.00000000
Si       2.78625140       0.26966466      -2.59258365       0.00000000
Si      -2.66544150       0.09348831       2.72993464       0.00000000
Si      -0.01248629       2.70601337      -2.70082363       0.00000000
Si       0.04246477      -2.66629835       2.75887643       0.00000000
Si       0.03032058       2.74190025       2.72447887       0.00000000
