10
Lattice="16.290000149 0.0 0.0 0.0 16.290000149 0.0 0.0 0.0 29.1751946751" Properties=species:S:1:pos:R:3:initial_magmoms:R:1 pbc="T T T"
Si      -1.33936381      -1.28734984      -1.43078072       0.00000000
Si       1.35063649       1.38443824      -1.35489604       0.00000000
Si      -1.12534579       1.11576727       1.75331250       0.00000000
Si       1.34271955      -1.41534037       1.36942529       0.00000000
Si       0.73751347       1.95234023       3.00810845       0.00000000
Si       2.41375448       0.27243396       2.75548044       0.00000000
Si      -2.78443344      -0.40829256       2.48683524       0.00000000
Si       0.05237235      -2.64077192      -2.74424799       0.00000000
Si       2.73655713       0.03422529      -2.70882930       0.00000000
Si      -0.05189994      -3.23599224       2.11782738       0.00000000
