10
Lattice="10.86 0.0 0.0 0.0 10.86 0.0 0.0 0.0 10.86" Properties=species:S:1:pos:R:3:initial_magmoms:R:1 pbc="T T T"
Si       1.24770540       1.17978696       1.45416486       0.00000000
Si      -1.46729460       1.17978696      -1.26083514       0.00000000
Si       1.24770540      -1.53521304      -1.26083514       0.00000000
Si      -1.65621516      -1.63572234       1.16392050       0.00000000
Si       2.41353726      -0.10930590       2.68586262       0.00000000
Si       2.60520540       2.53728696       0.09666486       0.00000000
Si      -0.10979460       2.53728696      -2.61833514       0.00000000
Si       2.60520540      -0.17771304      -2.61833514       0.00000000
Si      -0.10979460       2.53728696       2.81166486       0.00000000
Si      -2.82479460       2.53728696       0.09666486       0.00000000
