10
Lattice="10.86 0.0 0.0 0.0 10.86 0.0 0.0 0.0 10.86" Properties=species:S:1:pos:R:3:initial_magmoms:R:1 pbc="T T T"
Si       0.84822030       0.86656284       1.77372036       0.00000000
Si       0.84822030      -1.84843716      -0.94127964       0.00000000
Si      -1.86677970       0.86656284      -0.94127964       0.00000000
Si       2.20572030       2.22406284       0.41622036       0.00000000
Si       2.20572030      -0.49093716      -2.29877964       0.00000000
Si      -0.50927970       2.22406284      -2.29877964       0.00000000
Si       3.56322030       0.86656284      -0.94127964       0.00000000
Si       0.84822030       3.58156284      -0.94127964       0.00000000
Si      -0.70094784       2.29246998       3.00541812       0.00000000
Si       0.84822030       0.86656284      -3.65627964       0.00000000
