10
Lattice="10.86 0.0 0.0 0.0 10.86 0.0 0.0 0.0 10.86" Properties=species:S:1:pos:R:3:initial_magmoms:R:1 pbc="T T T"
Si      -1.46731632       1.41581820      -1.12269594       0.00000000
Si       1.98149388      -0.83135472      -1.05541824       0.00000000
Si       1.24768368       1.41581820       1.59230406       0.00000000
Si      -1.46731632      -1.29918180       1.59230406       0.00000000
Si      -2.82481632       0.05831820      -2.48019594       0.00000000
Si      -0.28496640       3.06088014      -2.17518198       0.00000000
Si       2.67124506      -2.72960670       0.33773514       0.00000000
Si       2.74709130       2.70365130       0.17952666       0.00000000
Si      -2.82481632      -2.65668180       0.23480406       0.00000000
Si       2.60518368       0.05831820       2.94980406       0.00000000
