10
Lattice="16.28999089631971 0.0 0.0 0.0 16.28999089631971 0.0 0.0 0.0 34.376317263855086" Properties=species:S:1:pos:R:3:initial_magmoms:R:1 pbc="T T T"
Si       0.52092162      -1.72208106       1.43583082       0.00000000
Si      -1.92055353       0.83745768       1.34916808       0.00000000
Si      -1.63315395      -0.66479490      -1.86546628       0.00000000
Si       2.59959078       0.64821168      -0.82919161       0.00000000
Si      -0.00241092       0.08449623      -3.48617303       0.00000000
Si       1.97987031      -0.49969575       2.83459162       0.00000000
Si       1.51075089      -3.19179744      -0.06400874       0.00000000
Si      -2.77875539       2.35197856      -0.46559310       0.00000000
Si      -0.81345744       2.21426453       2.84981002       0.00000000
Si       0.16091262       3.55026608      -1.09880522       0.00000000
