10
Lattice="16.28999089631971 0.0 0.0 0.0 16.28999089631971 0.0 0.0 0.0 34.376317263855086" Properties=species:S:1:pos:R:3:initial_magmoms:R:1 pbc="T T T"
Si      -1.59334119      -1.00533735      -1.45480656       0.00000000
Si      -0.82963341       0.87780294       2.12645142       0.00000000
Si       1.06280847       1.63789434      -1.55288225       0.00000000
Si       2.06433396      -1.54647486       0.10852609       0.00000000
Si      -1.06435602      -1.47214359       2.65357817       0.00000000
Si       2.51963946      -0.06410115       2.10885074       0.00000000
Si      -0.14584437      -2.29880896      -2.85203276       0.00000000
Si       1.21722138       3.34256139       1.38791021       0.00000000
Si       1.08313839       1.37143881       3.46881298       0.00000000
Si       2.55976173       0.43303707      -2.89115303       0.00000000
