10
Lattice="16.28999089631971 0.0 0.0 0.0 16.28999089631971 0.0 0.0 0.0 34.376317263855086" Properties=species:S:1:pos:R:3:initial_magmoms:R:1 pbc="T T T"
Si      -0.86434740      -1.84696020      -1.20822510       0.00000000
Si      -1.77109767      -0.44838225       1.52342173       0.00000000
Si       0.23472261       2.34994653      -0.52712674       0.00000000
Si       1.06435602       1.47214359      -2.65357817       0.00000000
Si      -2.10963645      -2.68782461       0.94534925       0.00000000
Si      -2.24806887      -0.56130779      -2.80669037       0.00000000
Si       2.14749441       2.84358240       0.81523482       0.00000000
Si      -0.81642222       0.17780535       3.58184238       0.00000000
Si       1.80877644      -2.24457371       2.29190473       0.00000000
Si       1.49521023      -0.17141967       3.58562378       0.00000000
