10
Lattice="16.28999089631971 0.0 0.0 0.0 16.28999089631971 0.0 0.0 0.0 34.376317263855086" Properties=species:S:1:pos:R:3:initial_magmoms:R:1 pbc="T T T"
Si      -1.35584928      -1.35656039      -1.35679962       0.00000000
Si       1.35946566       1.35859903      -1.35686838       0.00000000
Si      -1.35446463       1.35923434       1.36154356       0.00000000
Si       1.36251189      -1.35408038       1.36240297       0.00000000
Si      -2.71331290       0.00170231      -2.71414927       0.00000000
Si       0.00159642      -2.71379412      -2.71418365       0.00000000
Si      -2.71542408      -2.71444572       0.00013751       0.00000000
Si       2.71438641      -2.71568376      -0.00089378       0.00000000
Si       0.00166158       2.71635424      -2.71401176       0.00000000
Si      -2.71470244       2.71641940      -0.00003438       0.00000000
