10
Lattice="16.28999089631971 0.0 0.0 0.0 16.28999089631971 0.0 0.0 0.0 34.376317263855086" Properties=species:S:1:pos:R:3:initial_magmoms:R:1 pbc="T T T"
Si       2.19879162       0.40184335       0.75758570       0.00000000
Si      -1.21355613       1.47787930       1.40004506       0.00000000
Si      -0.23983767      -2.35767355       0.08075001       0.00000000
Si      -0.59725656       0.52424641      -2.27822295       0.00000000
Si       0.89743239      -2.81540626      -1.93208762       0.00000000
Si       1.95730866       2.71818361       1.31327918       0.00000000
Si       3.39074721       0.26297110      -1.20905013       0.00000000
Si      -2.58154146      -2.51420416       0.34390087       0.00000000
Si      -3.60882144      -0.52889232      -0.48480947       0.00000000
Si      -0.21098808       3.60352882       0.79804665       0.00000000
