10
Lattice="16.28999089631971 0.0 0.0 0.0 16.28999089631971 0.0 0.0 0.0 34.376317263855086" Properties=species:S:1:pos:R:3:initial_magmoms:R:1 pbc="T T T"
Si       1.57866390       0.60310467       1.68849689       0.00000000
Si      -1.16419743       1.50589647      -1.48818598       0.00000000
Si       1.50873093      -1.20824559      -1.48739533       0.00000000
Si      -1.84176369      -0.94556934       1.45411903       0.00000000
Si      -2.47507002       2.73613356      -0.02179460       0.00000000
Si      -2.54027889       0.15394050      -2.84955766       0.00000000
Si       0.17407494      -2.56106493      -2.85598603       0.00000000
Si       2.74279617      -2.71358820      -0.16854718       0.00000000
Si      -2.77500150      -2.70850572      -0.03344818       0.00000000
Si       2.79624366       2.72085354       0.00766592       0.00000000
