10
Lattice="16.28999089631971 0.0 0.0 0.0 16.28999089631971 0.0 0.0 0.0 34.376317263855086" Properties=species:S:1:pos:R:3:initial_magmoms:R:1 pbc="T T T"
Si       1.71908370       1.02811403      -1.30169436       0.00000000
Si      -1.01996577      -1.77823662      -1.23232291       0.00000000
Si       1.38372147      -1.28565241       1.59846527       0.00000000
Si      -1.95115104       1.73886302       0.08226257       0.00000000
Si      -2.27273519      -0.27383327      -2.71198356       0.00000000
Si       2.24806887       0.56130779       2.80669037       0.00000000
Si       0.44344638       2.47456829      -2.70421451       0.00000000
Si       3.31242489       2.03345138       0.15311220       0.00000000
Si      -3.71008727       0.95039444      -1.29361592       0.00000000
Si       0.43878744      -2.96466990      -2.71628060       0.00000000
