10
Lattice="16.28999089631971 0.0 0.0 0.0 16.28999089631971 0.0 0.0 0.0 34.376317263855086" Properties=species:S:1:pos:R:3:initial_magmoms:R:1 pbc="T T T"
Si       0.65656845      -1.76692743      -1.40554527       0.00000000
Si       0.13442508      -0.83178369       2.22542089       0.00000000
Si      -2.17205973       0.69548526      -0.71220894       0.00000000
Si       1.49281560       1.88291223      -0.07775927       0.00000000
Si      -0.37598949       1.15281072       3.50129862       0.00000000
Si       0.40044078      -0.89606403      -3.62123766       0.00000000
Si      -3.49360227      -1.31831712      -0.53238632       0.00000000
Si      -2.86679565       2.40099939       0.78484614       0.00000000
Si       3.66704190       1.19734758       0.61468327       0.00000000
Si       2.90910078      -2.37122127      -1.10114281       0.00000000
