10
Lattice="16.28999089631971 0.0 0.0 0.0 16.28999089631971 0.0 0.0 0.0 34.376317263855086" Properties=species:S:1:pos:R:3:initial_magmoms:R:1 pbc="T T T"
Si      -0.91689894      -0.25378191       2.20469196       0.00000000
Si      -1.47725865       0.22045257      -1.88763901       0.00000000
Si       1.32154254       2.01380238      -0.17982262       0.00000000
Si       0.93012642      -2.24352396      -0.32224378       0.00000000
Si      -2.19242223      -2.01332997      -2.09592523       0.00000000
Si      -0.02454903      -2.86971156      -2.38066443       0.00000000
Si       3.49360227       1.31831712       0.53238632       0.00000000
Si       0.27901512      -2.06101080       3.18400504       0.00000000
Si      -3.22863565      -0.74793906       2.06608657       0.00000000
Si       0.23019399      -3.64588771       1.47495109       0.00000000
