10
Lattice="16.28999089631971 0.0 0.0 0.0 16.28999089631971 0.0 0.0 0.0 34.376317263855086" Properties=species:S:1:pos:R:3:initial_magmoms:R:1 pbc="T T T"
Si       1.31854518      -1.61202582       1.08374838       0.00000000
Si      -1.57866390      -0.60310467      -1.68849689       0.00000000
Si      -1.02451068       0.74332899       2.08035275       0.00000000
Si       1.21757976       2.11774887      -1.68083097       0.00000000
Si       2.68732872      -2.03654322      -0.70578056       0.00000000
Si      -0.06993297      -1.81135026      -3.17589222       0.00000000
Si      -3.42042759      -1.54867401      -0.23437786       0.00000000
Si       0.65725263       1.71406638       3.44708714       0.00000000
Si       1.16413227      -3.31669287      -1.85704407       0.00000000
Si      -1.87520706       3.22291134       1.78836015       0.00000000
