10
Lattice="16.28999089631971 0.0 0.0 0.0 16.28999089631971 0.0 0.0 0.0 34.376317263855086" Properties=species:S:1:pos:R:3:initial_magmoms:R:1 pbc="T T T"
Si      -1.58904063      -0.73894698      -1.51579018       0.00000000
Si       1.57514526      -1.58407218       0.61550830       0.00000000
Si      -0.29559834       1.09449252       2.04659519       0.00000000
Si       1.40499621       1.21148730      -1.44769066       0.00000000
Si       2.91962412       1.97591184       0.22107422       0.00000000
Si       3.57487308      -0.26764470       0.23197152       0.00000000
Si       1.89646551       1.91717010       2.46151757       0.00000000
Si      -2.17596933       1.17473706      -2.78070186       0.00000000
Si       2.38555647      -0.54934767      -2.89651574       0.00000000
Si       1.38903201      -3.46573008      -0.78814627       0.00000000
