10
Lattice="16.28999089631971 0.0 0.0 0.0 16.28999089631971 0.0 0.0 0.0 34.376317263855086" Properties=species:S:1:pos:R:3:initial_magmoms:R:1 pbc="T T T"
Si       2.31173671       0.49415715       0.13860539       0.00000000
Si      -1.10864920       2.09189664      -0.13568340       0.00000000
Si      -1.06295575      -0.61727697       2.07230869       0.00000000
Si      -0.15288979      -1.53067356      -1.97289233       0.00000000
Si      -1.62403222       0.34424028      -2.91377266       0.00000000
Si      -3.12279367       0.87772149      -1.10396167       0.00000000
Si       1.20347914      -3.28897218      -0.89756615       0.00000000
Si       0.18445330      -2.35994696       2.92312302       0.00000000
Si       2.54049718       2.09513835       1.84989379       0.00000000
Si      -3.26331121      -1.21498965       1.54236309       0.00000000
