10
Lattice="16.28999089631971 0.0 0.0 0.0 16.28999089631971 0.0 0.0 0.0 34.376317263855086" Properties=species:S:1:pos:R:3:initial_magmoms:R:1 pbc="T T T"
Si       1.35514881       1.35536058       1.35624960       0.00000000
Si       1.35698958      -1.35711990      -1.35690275       0.00000000
Si      -1.35764118       1.35725022      -1.35704026       0.00000000
Si      -1.35904212      -1.35940050       1.35783091       0.00000000
Si      -2.71342530      -0.00058644      -2.71332424       0.00000000
Si      -0.00057015      -2.71402803      -2.71390864       0.00000000
Si       2.71399545       0.00026064      -2.71394301       0.00000000
Si      -0.00052128       2.71452052      -2.71353050       0.00000000
Si       2.71469592      -2.71485882       0.00030939       0.00000000
Si      -2.71508688       2.71448396       0.00034376       0.00000000
