10
Lattice="16.28999089631971 0.0 0.0 0.0 16.28999089631971 0.0 0.0 0.0 34.376317263855086" Properties=species:S:1:pos:R:3:initial_magmoms:R:1 pbc="T T T"
Si      -1.35628911      -1.35575154      -1.35752153       0.00000000
Si       1.35904212       1.35940050      -1.35783091       0.00000000
Si       1.36146933      -1.35643572       1.35999662       0.00000000
Si      -1.35685926       1.36088289       1.36130292       0.00000000
Si       0.00110772      -2.71277370      -2.71490555       0.00000000
Si      -2.71344648       0.00177561      -2.71493993       0.00000000
Si       2.71419093       2.71476108      -0.00158131       0.00000000
Si       2.71567332      -2.71448415      -0.00082503       0.00000000
Si       2.71603170       0.00228060      -2.71473367       0.00000000
Si      -2.71675498      -2.71443528      -0.00006875       0.00000000
