10
Lattice="16.28999089631971 0.0 0.0 0.0 16.28999089631971 0.0 0.0 0.0 34.376317263855086" Properties=species:S:1:pos:R:3:initial_magmoms:R:1 pbc="T T T"
Si      -1.18561878       1.37324700      -1.48914852       0.00000000
Si       1.23028596       1.37811771       1.55463544       0.00000000
Si      -1.55647692      -1.28441763       1.47216661       0.00000000
Si       1.52850699      -1.34353404      -1.46405379       0.00000000
Si      -2.64437199       2.55968028      -0.00519083       0.00000000
Si      -2.46703905      -2.83100652      -0.02588538       0.00000000
Si      -2.53399095       0.01682757      -2.85588291       0.00000000
Si       1.52005248      -0.08783568       3.51687110       0.00000000
Si      -0.28851219      -1.74112407       3.47276626       0.00000000
Si       0.18433764      -2.70049104      -2.85718921       0.00000000
