10
Lattice="16.28999089631971 0.0 0.0 0.0 16.28999089631971 0.0 0.0 0.0 34.376317263855086" Properties=species:S:1:pos:R:3:initial_magmoms:R:1 pbc="T T T"
Si       1.70482995      -1.55747061       0.23461850       0.00000000
Si      -1.42262199      -1.28462940      -1.39244789       0.00000000
Si      -0.64308033       0.32843898       2.26048476       0.00000000
Si       0.79659729       1.70021988      -1.46205997       0.00000000
Si      -1.31966919       2.74217715      -1.96938594       0.00000000
Si      -0.12220758      -1.21034700      -3.47579138       0.00000000
Si       1.21868748      -2.92915377       2.10864448       0.00000000
Si       3.78631728      -0.38390643       0.45627711       0.00000000
Si       1.68635709       0.44294139      -3.43168654       0.00000000
Si       0.27034884      -1.39865940       3.57785472       0.00000000
