10
Lattice="16.28999089631971 0.0 0.0 0.0 16.28999089631971 0.0 0.0 0.0 34.376317263855086" Properties=species:S:1:pos:R:3:initial_magmoms:R:1 pbc="T T T"
Si       1.18112274      -1.26649863       1.63985438       0.00000000
Si      -0.31356621       2.07315404       1.29371905       0.00000000
Si      -1.80214641      -1.48520817      -0.83922950       0.00000000
Si       2.02935933       0.10102473      -1.59203689       0.00000000
Si      -1.80877644       2.24457371      -2.29190473       0.00000000
Si       0.04385268      -0.80876592       3.65269201       0.00000000
Si      -2.62519866       2.42237906       1.28993765       0.00000000
Si       0.28369035       1.54890763       3.57194199       0.00000000
Si       1.18757358      -3.56933448       1.07910758       0.00000000
Si       2.85635376       2.48566571      -1.05586917       0.00000000
