10
Lattice="16.28999089631971 0.0 0.0 0.0 16.28999089631971 0.0 0.0 0.0 34.376317263855086" Properties=species:S:1:pos:R:3:initial_magmoms:R:1 pbc="T T T"
Si      -1.24740905       1.74266999      -0.85081433       0.00000000
Si      -0.80353031      -0.84134918       2.05278293       0.00000000
Si      -0.01217677      -1.54348632      -1.79760739       0.00000000
Si       2.24248629       0.73804940       0.29728656       0.00000000
Si       1.09441596      -2.20243311       2.70115501       0.00000000
Si       2.96667453      -0.73906590       2.02572876       0.00000000
Si      -0.18445330       2.35994696      -2.92312302       0.00000000
Si      -0.68306739       1.02972185       3.59662420       0.00000000
Si      -3.04701422      -1.72744929       1.64686715       0.00000000
Si      -3.44776451       1.14495731      -1.38075993       0.00000000
