10
Lattice="16.28999089631971 0.0 0.0 0.0 16.28999089631971 0.0 0.0 0.0 34.376317263855086" Properties=species:S:1:pos:R:3:initial_magmoms:R:1 pbc="T T T"
Si       2.11111884       1.05619540      -0.10883548       0.00000000
Si      -1.88343351       1.37152419       0.41657245       0.00000000
Si      -0.65850696      -1.18311012      -1.98103952       0.00000000
Si       0.01922220      -1.06163559       2.17035000       0.00000000
Si      -1.22243418       2.46017186       2.41810026       0.00000000
Si       1.77318279       3.24507293      -1.07573870       0.00000000
Si       3.68054631      -0.46827234      -1.11589026       0.00000000
Si      -3.75569208      -0.09184302       1.09199870       0.00000000
Si      -1.57060035      -2.80302030       2.24267782       0.00000000
Si       0.80861931      -2.94449895      -2.45639550       0.00000000
