10
Lattice="16.28999089631971 0.0 0.0 0.0 16.28999089631971 0.0 0.0 0.0 34.376317263855086" Properties=species:S:1:pos:R:3:initial_magmoms:R:1 pbc="T T T"
Si      -1.35570267       1.35086128       1.35721214       0.00000000
Si       1.35246096       1.34825488      -1.36816788       0.00000000
Si       1.35708732      -1.36170175       1.35614647       0.00000000
Si      -1.36705680      -1.35673938      -1.35773810       0.00000000
Si       2.57869071      -0.09447386      -2.78001777       0.00000000
Si      -2.71280628       2.71088080      -0.00725341       0.00000000
Si       2.71673217       2.70765538      -0.00323138       0.00000000
Si       0.00159642       2.71039210       2.71411489       0.00000000
Si      -2.71337643      -0.00437712       2.71397739       0.00000000
Si       2.71598283      -0.00399594       2.71383988       0.00000000
