10
Lattice="16.28999089631971 0.0 0.0 0.0 16.28999089631971 0.0 0.0 0.0 34.376317263855086" Properties=species:S:1:pos:R:3:initial_magmoms:R:1 pbc="T T T"
Si      -1.35246096      -1.34825488       1.36816788       0.00000000
Si       1.36427121       1.35940050       1.36493650       0.00000000
Si       1.22622975      -1.44272874      -1.41184989       0.00000000
Si      -1.32090723       1.29658626      -1.47943033       0.00000000
Si       2.31171390       0.40231413      -2.52122480       0.00000000
Si       0.55848636       2.21732964      -2.80207504       0.00000000
Si      -2.35058184      -0.53897094      -2.88787838       0.00000000
Si      -2.71951776      -2.70499427       0.01042978       0.00000000
Si       2.71726974      -2.71364426      -0.01663815       0.00000000
Si      -2.70321147       2.72960127      -0.03270565       0.00000000
