10
Lattice="16.28999089631971 0.0 0.0 0.0 16.28999089631971 0.0 0.0 0.0 34.376317263855086" Properties=species:S:1:pos:R:3:initial_magmoms:R:1 pbc="T T T"
Si       0.52602039      -1.73725424       1.47666991       0.00000000
Si       2.23831116       0.74373787      -0.32609393       0.00000000
Si      -1.11000060      -0.34761883      -2.10503496       0.00000000
Si      -0.86053554       1.79431092       1.46611637       0.00000000
Si       2.38338990       1.40325318       1.84360293       0.00000000
Si       0.45942687      -1.87208657      -3.11208974       0.00000000
Si       2.27084229      -2.89452842       0.40780648       0.00000000
Si      -1.36290285      -3.16106540       1.68268729       0.00000000
Si      -1.44793665       1.84125870      -3.07193818       0.00000000
Si       3.74187816      -1.06788185      -0.07404663       0.00000000
