10
Lattice="16.28999089631971 0.0 0.0 0.0 16.28999089631971 0.0 0.0 0.0 34.376317263855086" Properties=species:S:1:pos:R:3:initial_magmoms:R:1 pbc="T T T"
Si      -1.35348723       1.35431802      -1.35817468       0.00000000
Si       1.35863487       1.35584928       1.35848406       0.00000000
Si      -1.35645201      -1.35904212       1.35814030       0.00000000
Si       1.35868374      -1.36177884      -1.35920597       0.00000000
Si      -0.00079821       2.69505018      -2.72549346       0.00000000
Si      -2.71322982       2.71274112       0.00027501       0.00000000
Si       0.00112401       2.71409319       2.71548995       0.00000000
Si       2.71717200       2.71303434       0.00024063       0.00000000
Si      -2.71423980      -0.00149868       2.71600559       0.00000000
Si       2.71552671      -0.00096111       2.71535244       0.00000000
