10
Lattice="16.28999089631971 0.0 0.0 0.0 16.28999089631971 0.0 0.0 0.0 34.376317263855086" Properties=species:S:1:pos:R:3:initial_magmoms:R:1 pbc="T T T"
Si       1.32317154       1.36681245       1.34899620       0.00000000
Si      -1.36054080       1.35254241      -1.35844969       0.00000000
Si       1.35410625      -1.36205577      -1.35882783       0.00000000
Si      -1.38232053      -1.36430379       1.36807506       0.00000000
Si       2.64863997      -0.00687438       2.63642437       0.00000000
Si      -2.71474479       2.71059084       0.00237197       0.00000000
Si       2.71482624       2.71158453       0.00092816       0.00000000
Si      -0.00247608       2.71156824      -2.71514618       0.00000000
Si       2.71083519      -2.71700910      -0.00034376       0.00000000
Si       2.71308321      -0.00330687      -2.71518056       0.00000000
