10
Lattice="16.28999089631971 0.0 0.0 0.0 16.28999089631971 0.0 0.0 0.0 34.376317263855086" Properties=species:S:1:pos:R:3:initial_magmoms:R:1 pbc="T T T"
Si      -1.35638685      -1.35684297      -1.35583709       0.00000000
Si       1.35672894      -1.35495333       1.35848406       0.00000000
Si       1.35897696       1.35874890      -1.35635273       0.00000000
Si      -1.35410625       1.36205577       1.35882783       0.00000000
Si      -0.00540828      -2.71244790       2.70748026       0.00000000
Si      -2.71362078       0.00086337      -2.71394301       0.00000000
Si       0.00140094      -2.71438641      -2.71370238       0.00000000
Si      -2.71464705       2.71459818       0.00037814       0.00000000
Si       2.71515204      -2.71430496       0.00110004       0.00000000
Si      -2.71515204      -2.71443528       0.00089378       0.00000000
