10
Lattice="16.28999089631971 0.0 0.0 0.0 16.28999089631971 0.0 0.0 0.0 34.376317263855086" Properties=species:S:1:pos:R:3:initial_magmoms:R:1 pbc="T T T"
Si      -0.65656845       1.76692743       1.40554527       0.00000000
Si       2.25253233      -0.60429384       0.30440246       0.00000000
Si      -0.90841185      -2.14413867       0.55469657       0.00000000
Si      -0.25612767       0.87086340      -2.21569239       0.00000000
Si       2.26150812      -1.73162700      -1.79489166       0.00000000
Si      -3.22004430      -1.79491365       0.55091517       0.00000000
Si      -0.52214337       0.93514374       3.63096616       0.00000000
Si       1.08752040       2.82115107      -2.29193911       0.00000000
Si       1.18037340      -0.56467656      -3.57565464       0.00000000
Si      -2.82862818       2.46241269       0.69333633       0.00000000
