10
Lattice="16.28999089631971 0.0 0.0 0.0 16.28999089631971 0.0 0.0 0.0 34.376317263855086" Properties=species:S:1:pos:R:3:initial_magmoms:R:1 pbc="T T T"
Si       1.53249804       1.75316238      -0.07109026       0.00000000
Si      -0.08286723      -0.52163838       2.27502595       0.00000000
Si       0.24148296      -2.31634026      -0.55569348       0.00000000
Si      -2.16829674       0.88534521      -0.51523253       0.00000000
Si      -3.17086479      -1.24030431       0.08676587       0.00000000
Si      -2.21721561      -1.57459140       2.24958746       0.00000000
Si      -1.95730866      -2.71818361      -1.31327918       0.00000000
Si      -0.40065255       1.53790632       3.27788681       0.00000000
Si       1.13016762       2.84956083       1.98382400       0.00000000
Si       3.67986213       0.82841166       0.15156527       0.00000000
