10
Lattice="16.28999089631971 0.0 0.0 0.0 16.28999089631971 0.0 0.0 0.0 34.376317263855086" Properties=species:S:1:pos:R:3:initial_magmoms:R:1 pbc="T T T"
Si       1.63576035      -0.25765893       1.63500732       0.00000000
Si      -0.62747451       2.23809939      -0.16648460       0.00000000
Si       0.40233042      -1.09639845      -2.05491427       0.00000000
Si      -1.53082017      -1.31165451       1.29406281       0.00000000
Si      -1.54758258       2.47427181       1.97567681       0.00000000
Si      -1.21303485      -3.37119921       0.29120195       0.00000000
Si      -1.13016762      -2.84956083      -1.98382400       0.00000000
Si      -2.73689919       2.19256884      -1.15281044       0.00000000
Si       0.50958378       0.13514184       3.67868052       0.00000000
Si       2.54969451      -2.02114917      -1.83225873       0.00000000
