10
Lattice="16.28999089631971 0.0 0.0 0.0 16.28999089631971 0.0 0.0 0.0 34.376317263855086" Properties=species:S:1:pos:R:3:initial_magmoms:R:1 pbc="T T T"
Si       1.97144838       1.26715023       0.00075628       0.00000000
Si      -0.06895557      -0.17964612      -2.38386143       0.00000000
Si      -2.02114917       1.11276990       0.73005026       0.00000000
Si       0.52795890      -1.83751200       1.53273771       0.00000000
Si      -2.08544580       2.28985272      -1.31871064       0.00000000
Si      -2.27155905       0.40819482      -2.72236521       0.00000000
Si       3.04054479       0.42808491       1.88592020       0.00000000
Si      -1.29811752      -3.33909162       1.12589377       0.00000000
Si       3.09762495       0.87434946      -2.04291692       0.00000000
Si       1.68860511       3.56340492      -0.23118086       0.00000000
