10
Lattice="16.28999089631971 0.0 0.0 0.0 16.28999089631971 0.0 0.0 0.0 34.376317263855086" Properties=species:S:1:pos:R:3:initial_magmoms:R:1 pbc="T T T"
Si       1.35668007       1.35679410       1.35714339       0.00000000
Si      -1.35751086       1.35692442      -1.35776216       0.00000000
Si       1.35751086      -1.35824391      -1.35700588       0.00000000
Si      -1.35897696      -1.35874890       1.35635273       0.00000000
Si      -2.71308321       0.00330687       2.71518056       0.00000000
Si      -0.00224802      -2.71370223       2.71483680       0.00000000
Si       2.71409319       2.71463076      -0.00006875       0.00000000
Si      -0.00060273       2.71379997      -2.71542119       0.00000000
Si       2.71440270      -2.71505430      -0.00013751       0.00000000
Si      -2.71435383      -0.00135207      -2.71521494       0.00000000
