10
Lattice="16.28999089631971 0.0 0.0 0.0 16.28999089631971 0.0 0.0 0.0 34.376317263855086" Properties=species:S:1:pos:R:3:initial_magmoms:R:1 pbc="T T T"
Si      -0.82104858      -1.73421711      -1.34177717       0.00000000
Si       1.16822106      -1.38276036       1.53445653       0.00000000
Si       1.89270252       0.89849124      -1.19598712       0.00000000
Si      -1.86193071       1.79022213       0.30106795       0.00000000
Si      -2.14651701      -0.36053028      -2.62920534       0.00000000
Si       0.60077520       2.34163863      -2.59730410       0.00000000
Si      -3.56449635       0.83745261      -1.11506523       0.00000000
Si       3.17601243       2.13967521       0.34421026       0.00000000
Si      -0.94530870       3.54393837      -1.17405502       0.00000000
Si      -2.09474739      -3.31683948      -0.14001482       0.00000000
