10
Lattice="16.28999089631971 0.0 0.0 0.0 16.28999089631971 0.0 0.0 0.0 34.376317263855086" Properties=species:S:1:pos:R:3:initial_magmoms:R:1 pbc="T T T"
Si      -1.70256564      -0.95276952      -1.41613318       0.00000000
Si       0.91662201       1.75371624      -1.47512297       0.00000000
Si      -1.10066643       0.33949989       2.23851828       0.00000000
Si       1.86193071      -1.79022213      -0.30106795       0.00000000
Si      -0.28458630      -2.15075241      -2.93027330       0.00000000
Si       2.46270591       0.55141650      -2.89837206       0.00000000
Si       2.05516269       3.37328433      -0.17064413       0.00000000
Si       1.04088213      -3.52443924      -1.64284512       0.00000000
Si       0.40058739       0.68802444       3.97741088       0.00000000
Si      -2.98678779       1.80568134       2.09716278       0.00000000
