10
Lattice="16.28999089631971 0.0 0.0 0.0 16.28999089631971 0.0 0.0 0.0 34.376317263855086" Properties=species:S:1:pos:R:3:initial_magmoms:R:1 pbc="T T T"
Si      -1.24610355       1.35122292       1.42160933       0.00000000
Si       1.47062862      -1.37578824       1.39616740       0.00000000
Si      -1.86191442      -0.84923028      -1.38759536       0.00000000
Si       0.86902263       1.66299790      -1.61117905       0.00000000
Si      -2.56301973       2.57716175      -0.12290228       0.00000000
Si       2.69964396       2.61348845      -0.00067034       0.00000000
Si      -2.59232544      -0.01172880       2.77869428       0.00000000
Si      -2.68356573      -2.72668536      -0.15126963       0.00000000
Si       0.12095325       2.70796230       2.77934743       0.00000000
Si       0.12245193      -2.72166804       2.77673483       0.00000000
