10
Lattice="16.28999089631971 0.0 0.0 0.0 16.28999089631971 0.0 0.0 0.0 34.376317263855086" Properties=species:S:1:pos:R:3:initial_magmoms:R:1 pbc="T T T"
Si       1.13854068       1.61956809       1.30447884       0.00000000
Si      -1.18455993       1.51140249      -1.41668320       0.00000000
Si       1.54608390      -1.20229974      -1.42324908       0.00000000
Si      -0.91662201      -1.75371624       1.47512297       0.00000000
Si      -2.47876785       2.77202043       0.30770259       0.00000000
Si      -2.61918765      -2.70648576       0.05898979       0.00000000
Si      -2.53016280       0.15956055      -2.80088077       0.00000000
Si      -0.81218682       2.86664214       2.33662834       0.00000000
Si       0.19044639      -2.55969657      -2.80321836       0.00000000
Si       0.94530870      -3.54393837       1.17405502       0.00000000
