10
Lattice="16.28999089631971 0.0 0.0 0.0 16.28999089631971 0.0 0.0 0.0 34.376317263855086" Properties=species:S:1:pos:R:3:initial_magmoms:R:1 pbc="T T T"
Si      -1.71440847      -1.25410194       1.30234751       0.00000000
Si       1.29420792      -1.26061794      -1.72438579       0.00000000
Si       1.66658103       0.09462171       2.02892576       0.00000000
Si       0.80765820       2.19267377       1.23648245       0.00000000
Si      -1.40252013       1.44033966      -1.72407640       0.00000000
Si       2.47876785      -2.77202043      -0.30770259       0.00000000
Si       2.57429241       2.77539965      -0.40041557       0.00000000
Si       3.61730853      -1.15245234       0.99677625       0.00000000
Si      -2.94469443      -2.63221965      -0.25228793       0.00000000
Si      -2.85001695       2.73381128      -0.32685021       0.00000000
