10
Lattice="16.28999089631971 0.0 0.0 0.0 16.28999089631971 0.0 0.0 0.0 34.376317263855086" Properties=species:S:1:pos:R:3:initial_magmoms:R:1 pbc="T T T"
Si       1.37360538      -0.90456741      -1.67784023       0.00000000
Si       0.20481417       2.38095359       0.29192385       0.00000000
Si      -2.28850065      -0.69742377      -0.43111364       0.00000000
Si       0.78310917      -0.97013466       2.09602836       0.00000000
Si      -0.98714142       2.51982584       2.25855968       0.00000000
Si       0.01081656       0.72684418       3.63691327       0.00000000
Si      -3.42577071      -0.23969106       1.58172399       0.00000000
Si       2.96523612       0.81062528      -2.22188013       0.00000000
Si      -0.59295600      -2.88960165       2.48489348       0.00000000
Si       1.96287984      -3.16742760      -1.10396167       0.00000000
