10
Lattice="16.28999089631971 0.0 0.0 0.0 16.28999089631971 0.0 0.0 0.0 34.376317263855086" Properties=species:S:1:pos:R:3:initial_magmoms:R:1 pbc="T T T"
Si       1.23750243      -1.37242224       1.42843991       0.00000000
Si      -1.34535852      -1.35222217      -1.35896533       0.00000000
Si       1.36402686       1.36463122      -1.35989349       0.00000000
Si      -1.44088308       1.32462298       1.34878994       0.00000000
Si       0.07350048       2.56763143       2.67492587       0.00000000
Si      -0.39786696      -2.60322901       2.74598176       0.00000000
Si       2.70791928      -2.70781081       0.01192859       0.00000000
Si      -2.70777267       0.00350887      -2.72019951       0.00000000
Si      -2.72096757      -2.71139461       0.02481971       0.00000000
Si      -2.71208952       2.72140903      -0.01399117       0.00000000
