10
Lattice="16.28999089631971 0.0 0.0 0.0 16.28999089631971 0.0 0.0 0.0 34.376317263855086" Properties=species:S:1:pos:R:3:initial_magmoms:R:1 pbc="T T T"
Si       1.35316143       1.35423657      -1.37941925       0.00000000
Si      -1.36849032      -1.35920502      -1.37426280       0.00000000
Si      -1.31662296       1.40126580       1.41933018       0.00000000
Si       1.26311031      -1.51852122       1.41606443       0.00000000
Si      -2.65901670      -0.15620481       2.66055656       0.00000000
Si       2.68018134       2.70063765      -0.01010664       0.00000000
Si      -2.71435383       2.70536175      -0.01289113       0.00000000
Si       2.70557419      -0.00402363      -2.73535947       0.00000000
Si       2.70046239      -2.74274893      -0.00230321       0.00000000
Si      -0.00835677       2.70949941      -2.73498133       0.00000000
