10
Lattice="16.28999089631971 0.0 0.0 0.0 16.28999089631971 0.0 0.0 0.0 34.376317263855086" Properties=species:S:1:pos:R:3:initial_magmoms:R:1 pbc="T T T"
Si       1.35809730       1.16123868       1.45081890       0.00000000
Si      -1.23750243       1.37242224      -1.42843991       0.00000000
Si      -1.63536939      -1.23080677       1.31754185       0.00000000
Si       1.47041685      -1.33538857      -1.41651132       0.00000000
Si       1.91744703      -0.92308867       2.61469853       0.00000000
Si      -0.02469564       2.52543007       2.75918227       0.00000000
Si       2.75812506       2.57773726       0.00199383       0.00000000
Si      -0.16772184      -2.48316568       2.84563876       0.00000000
Si      -2.58286095       0.02020007      -2.78740524       0.00000000
Si      -2.67838551       2.69704522      -0.07964997       0.00000000
