10
Lattice="16.28999089631971 0.0 0.0 0.0 16.28999089631971 0.0 0.0 0.0 34.376317263855086" Properties=species:S:1:pos:R:3:initial_magmoms:R:1 pbc="T T T"
Si      -1.80638181      -1.01299365      -1.12063316       0.00000000
Si      -1.38448710       1.31807277       1.39902408       0.00000000
Si       1.30801823      -1.40877549       1.40231733       0.00000000
Si       1.99177897       0.72272214      -1.14818339       0.00000000
Si      -2.71740006       2.63204046      -0.04703027       0.00000000
Si       2.68274213      -2.71563422       0.00290480       0.00000000
Si      -1.23872418      -1.31839857      -3.36674418       0.00000000
Si      -0.04030146       2.66313807       2.77006582       0.00000000
Si       2.70596678       2.73140946      -0.03188749       0.00000000
Si       2.67393087      -0.05155785       2.76418747       0.00000000
