10
Lattice="16.28999089631971 0.0 0.0 0.0 16.28999089631971 0.0 0.0 0.0 34.376317263855086" Properties=species:S:1:pos:R:3:initial_magmoms:R:1 pbc="T T T"
Si      -1.35746199      -1.35578412      -1.35734965       0.00000000
Si       1.36151820      -1.35526284       1.35556208       0.00000000
Si      -1.35690813       1.35723393       1.35896533       0.00000000
Si       1.35828828       1.35853713      -1.35734965       0.00000000
Si       2.68853811      -0.00886176       2.72487469       0.00000000
Si       2.71207390       2.71516833       0.00027501       0.00000000
Si       2.71393096      -2.71352304      -0.00037814       0.00000000
Si      -2.70599706      -0.00413766       2.72209020       0.00000000
Si       0.00039096      -2.71339272      -2.71483680       0.00000000
Si      -2.71435383       0.00102627      -2.71421802       0.00000000
