10
Lattice="16.28999089631971 0.0 0.0 0.0 16.28999089631971 0.0 0.0 0.0 34.376317263855086" Properties=species:S:1:pos:R:3:initial_magmoms:R:1 pbc="T T T"
Si      -1.43031087       1.35984033       1.27230259       0.00000000
Si       1.34908893       1.36137159      -1.36312487       0.00000000
Si      -1.36811565      -1.35029439      -1.36446555       0.00000000
Si       1.39773087      -1.30409595       1.43222131       0.00000000
Si      -2.70400968      -0.22278204       2.47406494       0.00000000
Si       2.38962897       0.34275789       2.91817283       0.00000000
Si       2.71435383      -2.70536175       0.01289113       0.00000000
Si       2.70415629       2.72241738       0.00017188       0.00000000
Si       2.70599706       0.00413766      -2.72209020       0.00000000
Si      -0.00969255      -2.70964602      -2.72184957       0.00000000
