10
Lattice="16.28999089631971 0.0 0.0 0.0 16.28999089631971 0.0 0.0 0.0 34.376317263855086" Properties=species:S:1:pos:R:3:initial_magmoms:R:1 pbc="T T T"
Si      -1.32701991      -1.34640108      -1.36931261       0.00000000
Si       1.38517454       1.36932111      -1.36099354       0.00000000
Si       1.15045193      -1.49312511       1.45511595       0.00000000
Si      -1.43427327       1.32952464       1.40155761       0.00000000
Si       0.31894517       2.21558661       2.72226209       0.00000000
Si       2.08368974       0.26981127       2.94268315       0.00000000
Si      -2.68018134      -2.70063765       0.01010664       0.00000000
Si      -2.68853811       0.00886176      -2.72487469       0.00000000
Si      -2.69037888       2.72714148      -0.00261260       0.00000000
Si       0.02539285      -2.70466128      -2.72525283       0.00000000
