10
Lattice="16.28999089631971 0.0 0.0 0.0 16.28999089631971 0.0 0.0 0.0 34.376317263855086" Properties=species:S:1:pos:R:3:initial_magmoms:R:1 pbc="T T T"
Si      -1.63576035       0.25765893      -1.63500732       0.00000000
Si       0.79403976      -2.20762080       0.08116253       0.00000000
Si       1.49750712       1.81209960      -0.12289540       0.00000000
Si      -1.12617657       0.39280077       2.04367320       0.00000000
Si      -3.16658052      -1.05399558      -0.34094451       0.00000000
Si      -1.40901984       2.68905546       1.81173606       0.00000000
Si       1.32212898      -1.94031819       2.64477782       0.00000000
Si       2.90641293      -1.87851393      -1.11393081       0.00000000
Si       0.35448669       3.71400597       0.66006004       0.00000000
Si      -3.09762495      -0.87434946       2.04291692       0.00000000
