10
Lattice="16.28999089631971 0.0 0.0 0.0 16.28999089631971 0.0 0.0 0.0 34.376317263855086" Properties=species:S:1:pos:R:3:initial_magmoms:R:1 pbc="T T T"
Si      -0.79403976       2.20762080      -0.08116253       0.00000000
Si      -1.58047209      -1.75829373      -0.58721658       0.00000000
Si       2.11237317       0.32910687      -1.19509334       0.00000000
Si       0.52808922       0.26730261       2.56361529       0.00000000
Si       3.46899038       0.19867284       0.75964828       0.00000000
Si       0.11989440       0.44413056      -3.54842858       0.00000000
Si      -1.92021633       2.60042157       1.96251067       0.00000000
Si       2.53047231       1.49828904       2.49218127       0.00000000
Si      -2.42980011       2.46527973      -1.71616985       0.00000000
Si       0.44175222      -1.94839803      -3.36458393       0.00000000
