10
Lattice="16.28999089631971 0.0 0.0 0.0 16.28999089631971 0.0 0.0 0.0 34.376317263855086" Properties=species:S:1:pos:R:3:initial_magmoms:R:1 pbc="T T T"
Si       1.31085630      -1.37308410       1.36720534       0.00000000
Si      -1.39066101       1.35935163       1.36597467       0.00000000
Si       1.68640011       0.90544707      -1.51473280       0.00000000
Si      -1.59656661      -1.18139967      -1.53773057       0.00000000
Si       0.14027319       0.24964425      -3.45991780       0.00000000
Si      -3.50433738       0.54566613      -1.16635094       0.00000000
Si       2.70301829      -2.64903093      -0.07239656       0.00000000
Si       2.67360344      -0.00128691       2.72495031       0.00000000
Si      -2.77355169       2.62813086      -0.04671744       0.00000000
Si      -0.04202820       2.71083519       2.72756292       0.00000000
