10
Lattice="16.28999089631971 0.0 0.0 0.0 16.28999089631971 0.0 0.0 0.0 34.376317263855086" Properties=species:S:1:pos:R:3:initial_magmoms:R:1 pbc="T T T"
Si       1.35690813      -1.35723393      -1.35896533       0.00000000
Si      -1.34908893      -1.36137159       1.36312487       0.00000000
Si      -1.35827649       1.35883035      -1.35903409       0.00000000
Si       1.35506736       1.36104579       1.36329675       0.00000000
Si       2.61117297      -0.03657105       2.76746697       0.00000000
Si      -0.06564870       2.63117709       2.78121750       0.00000000
Si      -2.77939980      -0.00153126       2.63542746       0.00000000
Si      -2.71720458      -2.71166598      -0.00134068       0.00000000
Si      -0.00055386      -2.71301805      -2.71631498       0.00000000
Si      -2.71321353       2.71692765      -0.00006875       0.00000000
