10
Lattice="16.28999089631971 0.0 0.0 0.0 16.28999089631971 0.0 0.0 0.0 34.376317263855086" Properties=species:S:1:pos:R:3:initial_magmoms:R:1 pbc="T T T"
Si      -1.35723871      -1.35801238       1.35697151       0.00000000
Si       1.35775599       1.35728857       1.35734965       0.00000000
Si      -1.35686404       1.35807211      -1.35917159       0.00000000
Si       1.35708158      -1.36011379      -1.36291861       0.00000000
Si      -2.71424458       2.71475544       0.00044689       0.00000000
Si       0.00035975       2.71454367       2.71463054       0.00000000
Si       2.71521961      -0.00097413       2.71469929       0.00000000
Si      -2.71520569      -0.00024388       2.71476804       0.00000000
Si       0.00062819      -2.71550695       2.71490555       0.00000000
Si       2.71635991       2.71428303      -0.00041252       0.00000000
