10
Lattice="16.28999089631971 0.0 0.0 0.0 16.28999089631971 0.0 0.0 0.0 34.376317263855086" Properties=species:S:1:pos:R:3:initial_magmoms:R:1 pbc="T T T"
Si      -1.46764755       1.25235891      -1.52809691       0.00000000
Si       2.08516887       1.56007701      -0.23094023       0.00000000
Si       1.51513290      -1.77147234      -1.31431047       0.00000000
Si      -1.84915935       0.47695491       1.92215285       0.00000000
Si       0.77335146      -2.07919044       2.42865380       0.00000000
Si       0.16772184       2.48316568      -2.84563876       0.00000000
Si      -2.60618823      -0.36720918      -2.83257575       0.00000000
Si       2.70932022       2.32661925       1.93669404       0.00000000
Si       2.81890305      -0.40303089      -2.90944124       0.00000000
Si      -0.75398265       0.95360031       3.94169387       0.00000000
