10
Lattice="16.28999089631971 0.0 0.0 0.0 16.28999089631971 0.0 0.0 0.0 34.376317263855086" Properties=species:S:1:pos:R:3:initial_magmoms:R:1 pbc="T T T"
Si      -1.09517670      -0.47664540      -2.01954102       0.00000000
Si      -1.37360538       0.90456741       1.67784023       0.00000000
Si       1.59163074       1.71519269      -0.54403990       0.00000000
Si       0.58927446      -2.26286019       0.57387856       0.00000000
Si      -2.36824020      -2.38650129      -1.32173576       0.00000000
Si       1.52733411      -3.03279075      -1.51304007       0.00000000
Si      -2.81386944       1.57466700      -1.98516468       0.00000000
Si      -0.59049621      -0.06556725       3.77386859       0.00000000
Si       0.31811112       3.46226750      -1.66096145       0.00000000
Si      -3.66210603       0.20714364       1.24672659       0.00000000
