10
Lattice="16.28999089631971 0.0 0.0 0.0 16.28999089631971 0.0 0.0 0.0 34.376317263855086" Properties=species:S:1:pos:R:3:initial_magmoms:R:1 pbc="T T T"
Si      -1.15191477       1.39784490      -1.52084350       0.00000000
Si       1.62227223      -1.27716858      -1.19736218       0.00000000
Si       0.89946864       0.74269368       2.09183445       0.00000000
Si      -1.59176106      -1.96260291       0.20618927       0.00000000
Si      -0.37396953      -0.63930105       3.49401913       0.00000000
Si       2.18271339       2.94989094      -0.52733300       0.00000000
Si       0.46693656      -2.27585961      -2.97128427       0.00000000
Si      -1.10475522      -2.72176578       2.37438563       0.00000000
Si       0.31912110       3.22449147      -2.00269661       0.00000000
Si       3.16188900       0.13224222      -2.24683735       0.00000000
