10
Lattice="16.28999089631971 0.0 0.0 0.0 16.28999089631971 0.0 0.0 0.0 34.376317263855086" Properties=species:S:1:pos:R:3:initial_magmoms:R:1 pbc="T T T"
Si       0.89621227       0.35091918       2.19101018       0.00000000
Si       1.81074916      -1.58447943      -0.39433096       0.00000000
Si      -2.32522387      -0.80070237      -0.17714126       0.00000000
Si       0.11919556       2.37205206      -0.71100577       0.00000000
Si       2.71388305       1.52203986       1.17446754       0.00000000
Si      -1.83839722      -1.58772114      -2.37990815       0.00000000
Si      -3.05118772       1.51614288       0.25245982       0.00000000
Si       3.38796325       0.13253544      -0.69515828       0.00000000
Si      -1.49884648       3.32369757       0.70777439       0.00000000
Si      -2.32243828      -2.61710253       1.46762893       0.00000000
