10
Lattice="16.28999089631971 0.0 0.0 0.0 16.28999089631971 0.0 0.0 0.0 34.376317263855086" Properties=species:S:1:pos:R:3:initial_magmoms:R:1 pbc="T T T"
Si       1.35378562       1.35663120       1.35762466       0.00000000
Si       1.35693774      -1.35705474      -1.35731527       0.00000000
Si      -1.35814167       1.35808101      -1.35707464       0.00000000
Si      -1.35828828      -1.35853713       1.35734965       0.00000000
Si       0.00322992      -2.71379997       2.71291172       0.00000000
Si      -0.00140310      -2.71407690      -2.71414927       0.00000000
Si       2.71408859      -2.71454931       0.00000000       0.00000000
Si      -2.71410498      -0.00032580      -2.71511181       0.00000000
Si       2.71425149       2.71531494       0.00017188       0.00000000
Si      -0.00151047       2.71547784      -2.71435553       0.00000000
