10
Lattice="16.28999089631971 0.0 0.0 0.0 16.28999089631971 0.0 0.0 0.0 34.376317263855086" Properties=species:S:1:pos:R:3:initial_magmoms:R:1 pbc="T T T"
Si       1.35633798       1.35694071       1.35731527       0.00000000
Si      -1.35837260      -1.35840681       1.35721214       0.00000000
Si      -1.35752715       1.35856971      -1.36009975       0.00000000
Si       1.35703845      -1.36231641      -1.35879345       0.00000000
Si       2.71363707      -2.71454931      -0.00092816       0.00000000
Si      -0.00105885       2.71396287       2.71469929       0.00000000
Si       2.71370223       2.71508688       0.00048127       0.00000000
Si       2.71427238      -0.00089595       2.71504305       0.00000000
Si      -2.71531034      -0.00135207       2.71452741       0.00000000
Si      -0.00122175      -2.71590138       2.71452741       0.00000000
