10
Lattice="16.28999089631971 0.0 0.0 0.0 16.28999089631971 0.0 0.0 0.0 34.376317263855086" Properties=species:S:1:pos:R:3:initial_magmoms:R:1 pbc="T T T"
Si       1.35628911       1.35575154       1.35752153       0.00000000
Si       1.35739683      -1.35702216      -1.35738402       0.00000000
Si      -1.35715737       1.35752715      -1.35741840       0.00000000
Si      -1.36046587      -1.35868374       1.35745277       0.00000000
Si       0.00190593       2.71456560      -2.71363363       0.00000000
Si       0.00105885      -2.71396287      -2.71469929       0.00000000
Si       2.71476108       0.00112401      -2.71421802       0.00000000
Si      -2.71216187       0.00144981       2.71714001       0.00000000
Si      -2.71434707       2.71510317       0.00024063       0.00000000
Si      -2.71425149      -2.71531494      -0.00017188       0.00000000
