10
Lattice="16.28999089631971 0.0 0.0 0.0 16.28999089631971 0.0 0.0 0.0 34.376317263855086" Properties=species:S:1:pos:R:3:initial_magmoms:R:1 pbc="T T T"
Si      -1.63074303      -0.74929113       1.62070676       0.00000000
Si      -1.89794627       1.36108393      -0.64837208       0.00000000
Si       0.47289870      -2.35654398      -0.47989366       0.00000000
Si       1.87225857       1.46336721      -0.67542626       0.00000000
Si       0.00241092      -0.08449623       3.48617303       0.00000000
Si      -1.09441596       2.20243311      -2.70115501       0.00000000
Si       2.18509173      -2.71117728       1.15067911       0.00000000
Si       2.60200170       0.56371545       2.65698142       0.00000000
Si       1.15730676      -2.38242879      -2.69960808       0.00000000
Si      -1.77748335       3.23215496       0.89546919       0.00000000
