10
Lattice="10.86 0.0 0.0 0.0 10.86 0.0 0.0 0.0 10.86" Properties=species:S:1:pos:R:3:initial_magmoms:R:1 pbc="T T T"
Si       1.35750000       1.35750000       1.35750000       0.00000000
Si      -1.35750000      -1.35750000       1.35750000       0.00000000
Si      -1.35750000       1.35750000      -1.35750000       0.00000000
Si       1.35750000      -1.35750000      -1.35750000       0.00000000
Si      -0.15138840      -2.62213614       2.63679714       0.00000000
Si      -2.62904310      -2.68699206       0.01186998       0.00000000
Si       0.04963020      -2.67803256      -2.72529528       0.00000000
Si       0.64425864      -3.69615756       0.78347298       0.00000000
Si       2.75837484       2.66781330      -0.04926096       0.00000000
Si       0.01306458       2.70386850      -2.72587086       0.00000000
