10
Lattice="10.86 0.0 0.0 0.0 10.86 0.0 0.0 0.0 10.86" Properties=species:S:1:pos:R:3:initial_magmoms:R:1 pbc="T T T"
Si       1.30786980       1.32053256       1.36779528       0.00000000
Si       1.30786980      -1.39446744      -1.34720472       0.00000000
Si      -1.40713020       1.32053256      -1.34720472       0.00000000
Si      -1.32952464      -1.29205764       1.46899962       0.00000000
Si       0.59462844      -1.01812500       3.50876826       0.00000000
Si       2.58345282      -0.16925310       2.66860608       0.00000000
Si       2.66536980       2.67803256       0.01029528       0.00000000
Si       2.66536980      -0.03696744      -2.70470472       0.00000000
Si      -0.04963020       2.67803256      -2.70470472       0.00000000
Si      -0.04963020       2.67803256       2.72529528       0.00000000
