10
Lattice="10.86 0.0 0.0 0.0 10.86 0.0 0.0 0.0 10.86" Properties=species:S:1:pos:R:3:initial_magmoms:R:1 pbc="T T T"
Si       1.34914866      -1.28309814      -1.26816564       0.00000000
Si       1.27154310       1.32949206       1.34563002       0.00000000
Si      -1.44345690       1.32949206      -1.36936998       0.00000000
Si      -1.44345690      -1.38550794       1.34563002       0.00000000
Si       3.27330174      -1.00916550       0.77160300       0.00000000
Si       2.47765470       0.06485592       2.62492716       0.00000000
Si       2.62904310       2.68699206      -0.01186998       0.00000000
Si      -0.08595690       2.68699206       2.70313002       0.00000000
Si       0.02416350      -2.71117728       2.69579952       0.00000000
Si      -0.08595690       2.68699206      -2.72686998       0.00000000
