10
Lattice="16.28999089631971 0.0 0.0 0.0 16.28999089631971 0.0 0.0 0.0 34.46413024517268" Properties=species:S:1:pos:R:3:initial_magmoms:R:1 pbc="T T T"
Si      -1.60692283      -1.15250121      -1.36064462       0.00000000
Si       1.11673977       1.64739141      -1.39266182       0.00000000
Si      -0.97970015       1.70655669       1.48495681       0.00000000
Si       1.90367709      -1.74720024       0.32720264       0.00000000
Si       1.25921211       2.42686791       1.94732784       0.00000000
Si      -0.17805947      -2.38957196      -2.73862471       0.00000000
Si       2.54292927       0.34096599      -2.72408084       0.00000000
Si       2.22851598      -1.18359882       2.82299295       0.00000000
Si       1.08264480      -3.56856233      -1.08741285       0.00000000
Si      -2.72536165      -2.89639784       0.01788689       0.00000000
