10
Lattice="16.28999089631971 0.0 0.0 0.0 16.28999089631971 0.0 0.0 0.0 34.46413024517268" Properties=species:S:1:pos:R:3:initial_magmoms:R:1 pbc="T T T"
Si      -0.85372632      -1.41016014      -1.62636322       0.00000000
Si      -2.07788724       0.35950401       0.98757020       0.00000000
Si       0.61831953      -1.67387895       1.54271872       0.00000000
Si       0.88671357       2.21827446      -0.61397882       0.00000000
Si      -2.45145929       2.34584145      -0.15350332       0.00000000
Si       1.05753051      -2.39001993      -2.54727975       0.00000000
Si      -1.45942110       0.42397983       3.31879420       0.00000000
Si      -0.56915631       3.63668778       0.52530257       0.00000000
Si      -1.29510387      -3.17728305       1.47703006       0.00000000
Si      -2.11291074      -0.14876028      -3.20289127       0.00000000
