10
Lattice="16.28999089631971 0.0 0.0 0.0 16.28999089631971 0.0 0.0 0.0 34.46413024517268" Properties=species:S:1:pos:R:3:initial_magmoms:R:1 pbc="T T T"
Si      -2.10516810      -0.38815812       0.74738955       0.00000000
Si      -0.24874830      -0.00302994      -2.31705924       0.00000000
Si       1.45658664       1.61652579       1.05449958       0.00000000
Si      -0.97865596      -2.42400087       0.37772708       0.00000000
Si       0.60382143      -2.76240933       2.12916069       0.00000000
Si       0.02746494      -2.24951868      -3.00916829       0.00000000
Si       3.09584934       0.35405828       2.26060696       0.00000000
Si       0.21802536       2.91520043       2.55472401       0.00000000
Si       1.10213253       1.46400903      -3.47932821       0.00000000
Si      -3.04486883       0.64958071       2.61607437       0.00000000
