10
Lattice="16.28999089631971 0.0 0.0 0.0 16.28999089631971 0.0 0.0 0.0 34.46413024517268" Properties=species:S:1:pos:R:3:initial_magmoms:R:1 pbc="T T T"
Si      -0.82103229      -1.82136209      -1.41461548       0.00000000
Si       1.92235032       0.81265923      -1.43367416       0.00000000
Si       0.32483889       0.56360142       2.49579031       0.00000000
Si      -1.90367709       1.74720024      -0.32720264       0.00000000
Si       1.26747603      -2.39553314       1.20920915       0.00000000
Si       2.31669864      -0.73649371       2.68930651       0.00000000
Si       0.63925218       2.08816623      -3.05128348       0.00000000
Si      -2.08173657      -0.64237171      -3.06582735       0.00000000
Si      -2.75582980      -2.63028833      -0.04969730       0.00000000
Si      -0.78693732       3.39459165      -1.71986445       0.00000000
