10
Lattice="16.28999089631971 0.0 0.0 0.0 16.28999089631971 0.0 0.0 0.0 34.46413024517268" Properties=species:S:1:pos:R:3:initial_magmoms:R:1 pbc="T T T"
Si      -1.35866745       1.35381565      -1.36329836       0.00000000
Si       1.35773892      -1.36181273      -1.36343622       0.00000000
Si      -1.37743353      -1.34231360       1.37908294       0.00000000
Si       1.34557029       1.36033980       1.39466074       0.00000000
Si       2.58698232      -0.18453443       2.79169950       0.00000000
Si      -2.71551042       2.71126461      -0.00547980       0.00000000
Si       2.71321353       2.71592355       0.00055143       0.00000000
Si      -2.71687878      -2.71544657      -0.00213678       0.00000000
Si      -0.00034209       2.71287732      -2.72004854       0.00000000
Si       2.71502172      -0.00251568      -2.72077228       0.00000000
