10
Lattice="16.28999089631971 0.0 0.0 0.0 16.28999089631971 0.0 0.0 0.0 34.46413024517268" Properties=species:S:1:pos:R:3:initial_magmoms:R:1 pbc="T T T"
Si       1.64178765      -1.20258807      -1.17453822       0.00000000
Si       0.62837046       2.16963252       0.69224691       0.00000000
Si      -1.71468540       0.46869588      -1.59217478       0.00000000
Si      -0.25557381      -1.95954642       1.41123799       0.00000000
Si      -1.32297606       2.30552370       2.03552160       0.00000000
Si       1.07641062      -3.17722508      -0.07733755       0.00000000
Si      -0.33199020       0.53256897      -3.67470548       0.00000000
Si       3.70014318      -0.67129135      -0.24011173       0.00000000
Si       2.51405199       1.98092916       2.18919724       0.00000000
Si       1.65986955      -0.76752616      -3.48118928       0.00000000
