10
Lattice="16.28999089631971 0.0 0.0 0.0 16.28999089631971 0.0 0.0 0.0 34.46413024517268" Properties=species:S:1:pos:R:3:initial_magmoms:R:1 pbc="T T T"
Si       1.35536058      -1.35845568       1.36019659       0.00000000
Si      -1.34135118      -1.36765953      -1.36731688       0.00000000
Si      -1.35913986       1.35811359       1.36071355       0.00000000
Si       1.35884664       1.35479043      -1.39688368       0.00000000
Si      -2.71363707      -2.71510643      -0.00051696       0.00000000
Si      -2.71484253       2.71441899       0.00168874       0.00000000
Si      -0.00099369      -2.71440759       2.71732587       0.00000000
Si       2.71454931       0.00024435       2.71729140       0.00000000
Si       2.71770957      -2.71453302       0.00199892       0.00000000
Si       2.71751409       2.71503801       0.00137857       0.00000000
