10
Lattice="16.28999089631971 0.0 0.0 0.0 16.28999089631971 0.0 0.0 0.0 34.46413024517268" Properties=species:S:1:pos:R:3:initial_magmoms:R:1 pbc="T T T"
Si      -2.18442384      -0.81220427       0.14802352       0.00000000
Si       1.33198443      -1.21767866      -1.48857555       0.00000000
Si       0.92268189      -0.74885246       2.08976817       0.00000000
Si       0.25557381       1.95954642      -1.41123799       0.00000000
Si       1.89736146       0.75695834      -2.58577621       0.00000000
Si      -0.53318799       0.66956087       3.22904956       0.00000000
Si      -2.41549097      -0.62128547       2.55024367       0.00000000
Si       3.22944363      -0.33998975       1.71683161       0.00000000
Si       3.27769461      -1.74018041      -0.22987588       0.00000000
Si      -2.07694242      -3.11588720      -0.49914428       0.00000000
