10
Lattice="16.28999089631971 0.0 0.0 0.0 16.28999089631971 0.0 0.0 0.0 34.46413024517268" Properties=species:S:1:pos:R:3:initial_magmoms:R:1 pbc="T T T"
Si      -2.12646402       0.92931192      -0.14740317       0.00000000
Si       1.61047827       1.75817970      -0.17804180       0.00000000
Si       0.00272043      -1.59871689       1.83080455       0.00000000
Si      -0.23208363      -0.93649581      -2.29545021       0.00000000
Si      -3.37385611      -1.16157474      -0.02595150       0.00000000
Si       1.76682969      -0.08221563      -3.23318526       0.00000000
Si       3.32548947       0.76501098      -1.49819104       0.00000000
Si       2.41412913       2.06291673       1.98034449       0.00000000
Si      -2.20752306       2.29071609      -2.12385321       0.00000000
Si      -2.53332306       2.59563231       1.41527030       0.00000000
