10
Lattice="16.28999089631971 0.0 0.0 0.0 16.28999089631971 0.0 0.0 0.0 34.46413024517268" Properties=species:S:1:pos:R:3:initial_magmoms:R:1 pbc="T T T"
Si      -1.35775521      -1.34434854      -1.36218517       0.00000000
Si      -1.35467640       1.35604476       1.35706035       0.00000000
Si       1.35959598      -1.35726651       1.35785303       0.00000000
Si       1.34832330       1.36767582      -1.38641347       0.00000000
Si      -0.02054169      -2.70487305      -2.71935925       0.00000000
Si      -2.71081075       2.71440270      -0.00392891       0.00000000
Si      -2.71289425      -2.71345788      -0.00465266       0.00000000
Si      -2.71209766      -0.00035838       2.71436195       0.00000000
Si       0.00234576      -2.71464705       2.71443088       0.00000000
Si       0.00275301       2.71510317       2.71412070       0.00000000
