10
Lattice="16.28999089631971 0.0 0.0 0.0 16.28999089631971 0.0 0.0 0.0 34.46413024517268" Properties=species:S:1:pos:R:3:initial_magmoms:R:1 pbc="T T T"
Si      -1.67638761       0.55361565       1.56074347       0.00000000
Si       1.82034234       1.49216400      -0.12041774       0.00000000
Si       0.92953998      -2.09751669       0.54446463       0.00000000
Si      -1.02055221      -0.33270696      -2.19243687       0.00000000
Si       2.16821529       1.05202449      -2.48155662       0.00000000
Si      -2.88846135      -1.56498030      -1.40134678       0.00000000
Si       1.73319084      -1.79277966       2.70285092       0.00000000
Si      -0.46866330       1.34925183       3.42876931       0.00000000
Si      -2.61576675       2.55293622       0.88686596       0.00000000
Si       1.06305282       3.58798653      -0.88810667       0.00000000
