10
Lattice="16.28999089631971 0.0 0.0 0.0 16.28999089631971 0.0 0.0 0.0 34.46413024517268" Properties=species:S:1:pos:R:3:initial_magmoms:R:1 pbc="T T T"
Si       2.20869594      -0.70346736      -0.05142051       0.00000000
Si      -0.75308670       2.15433621       0.60250226       0.00000000
Si      -1.09056663      -1.48911777       1.47806398       0.00000000
Si      -0.84370797      -0.23988654      -2.20691181       0.00000000
Si       1.53301932      -2.83349889      -0.93845879       0.00000000
Si      -0.53844966      -3.40425162       0.10708011       0.00000000
Si      -3.07009485       1.54101771       0.33395761       0.00000000
Si       3.14629947       1.32831918      -0.99525571       0.00000000
Si      -3.00666159       0.68844798      -1.85113840       0.00000000
Si      -3.18318003      -0.34132437       1.83938612       0.00000000
