10
Lattice="16.28999089631971 0.0 0.0 0.0 16.28999089631971 0.0 0.0 0.0 34.46413024517268" Properties=species:S:1:pos:R:3:initial_magmoms:R:1 pbc="T T T"
Si      -0.30452526      -2.16182961      -0.86729032       0.00000000
Si       0.84370797       0.23988654       2.20691181       0.00000000
Si       1.47486402       0.92576070      -1.62305466       0.00000000
Si      -2.16295362       0.92833452       0.35577342       0.00000000
Si       1.95291036      -2.87513613      -1.02679041       0.00000000
Si      -1.53813438      -3.17902608       0.83827151       0.00000000
Si       2.79086796      -1.00302417      -2.17296463       0.00000000
Si       0.09062127       2.39422275       2.80941408       0.00000000
Si       2.37672729      -2.59361235       1.26845302       0.00000000
Si       3.05240391      -0.46358082       2.15549130       0.00000000
