10
Lattice="16.28999089631971 0.0 0.0 0.0 16.28999089631971 0.0 0.0 0.0 34.46413024517268" Properties=species:S:1:pos:R:3:initial_magmoms:R:1 pbc="T T T"
Si       1.36930482       1.34674317       1.38438008       0.00000000
Si      -1.34832330      -1.36767582       1.38641347       0.00000000
Si       1.34504901      -1.39761684      -1.40101937       0.00000000
Si      -1.36464588       1.34846991      -1.56108122       0.00000000
Si      -2.70387936       2.69057043       0.00129241       0.00000000
Si      -2.70607851      -2.71202436       0.02422830       0.00000000
Si       2.72367171       2.69500970       0.01437155       0.00000000
Si       0.01146816       2.70311801       2.74306025       0.00000000
Si      -2.70299970      -0.01163106       2.74347382       0.00000000
Si       2.72635956      -2.72122821       0.01038405       0.00000000
