10
Lattice="16.28999089631971 0.0 0.0 0.0 16.28999089631971 0.0 0.0 0.0 34.46413024517268" Properties=species:S:1:pos:R:3:initial_magmoms:R:1 pbc="T T T"
Si      -2.08396341       0.48078306       0.98140112       0.00000000
Si       0.75728952      -2.09582253       0.76768893       0.00000000
Si      -0.34148727      -0.74023389      -2.23803294       0.00000000
Si       1.80423153       1.60780671       0.06603331       0.00000000
Si       1.10516247      -2.53596204      -1.59344995       0.00000000
Si      -1.29323052       1.90073349       2.67183319       0.00000000
Si       3.74145462       0.25244613      -0.36135661       0.00000000
Si      -0.08215047       1.39589010      -3.50459043       0.00000000
Si      -3.43378539       1.26208404      -0.97026920       0.00000000
Si      -1.06305282      -3.58798653       0.88810667       0.00000000
