10
Lattice="16.28999089631971 0.0 0.0 0.0 16.28999089631971 0.0 0.0 0.0 34.46413024517268" Properties=species:S:1:pos:R:3:initial_magmoms:R:1 pbc="T T T"
Si      -0.25023069      -2.32673328      -0.44117558       0.00000000
Si      -1.71662391       0.58645142       1.70900825       0.00000000
Si       0.03448593       0.95405710      -2.34221806       0.00000000
Si       2.44402128       1.10233520       0.44868876       0.00000000
Si       0.96097968      -2.40337773       1.76349607       0.00000000
Si       2.62392804      -2.25191331      -0.56762454       0.00000000
Si       1.22098437       2.83482557       1.79899414       0.00000000
Si      -0.36388602       1.81586163       3.27446094       0.00000000
Si      -3.35588661       1.84891893       0.50290087       0.00000000
Si       1.78988004       2.56550300      -2.36582601       0.00000000
