10
Lattice="16.28999089631971 0.0 0.0 0.0 16.28999089631971 0.0 0.0 0.0 34.46413024517268" Properties=species:S:1:pos:R:3:initial_magmoms:R:1 pbc="T T T"
Si      -1.35009891      -1.34671059       1.37090115       0.00000000
Si       1.36213722       1.36534635       1.36600724       0.00000000
Si      -1.30306968       1.26860004      -1.51284175       0.00000000
Si       1.37191122      -1.38188722      -1.37346529       0.00000000
Si       2.31166503       0.50257908      -2.47353440       0.00000000
Si       0.60339789       2.15674713      -2.71115131       0.00000000
Si      -2.42216010      -0.33655140      -2.91872888       0.00000000
Si      -2.71443528      -2.71366844       0.00009995       0.00000000
Si       2.72233593      -2.70585324       0.01734925       0.00000000
Si      -2.70896184       2.72261286      -0.02798144       0.00000000
