10
Lattice="16.28999089631971 0.0 0.0 0.0 16.28999089631971 0.0 0.0 0.0 34.46413024517268" Properties=species:S:1:pos:R:3:initial_magmoms:R:1 pbc="T T T"
Si      -1.35635427      -1.35595191       1.35712928       0.00000000
Si      -1.35536058       1.35845568      -1.36019659       0.00000000
Si       1.35918873       1.35870003       1.35709482       0.00000000
Si       1.36234899      -1.35607734      -1.35819767       0.00000000
Si      -2.69671176      -0.00920385      -2.72751347       0.00000000
Si       0.00112401      -2.71345449       2.71470659       0.00000000
Si       2.71402803      -2.71467751       0.00031018       0.00000000
Si      -2.71419093      -2.71492689      -0.00031018       0.00000000
Si      -2.71423980       0.00193851       2.71543034       0.00000000
Si      -2.71450044       2.71656927       0.00051696       0.00000000
