10
Lattice="16.28999089631971 0.0 0.0 0.0 16.28999089631971 0.0 0.0 0.0 34.46413024517268" Properties=species:S:1:pos:R:3:initial_magmoms:R:1 pbc="T T T"
Si      -1.23856128       1.29867464       1.50022443       0.00000000
Si       1.63926270      -1.26246751       1.20610738       0.00000000
Si      -1.45658664      -1.61652579      -1.05449958       0.00000000
Si       1.25460693       1.58666555      -1.33855310       0.00000000
Si      -2.24040117       2.54593478      -0.28450155       0.00000000
Si       0.19627821      -2.73775020       2.63946933       0.00000000
Si      -0.11165166       3.79443296      -0.53681359       0.00000000
Si      -2.59788847      -0.07511808       2.85935060       0.00000000
Si       3.35588661      -1.84891893      -0.50290087       0.00000000
Si       0.23239314       2.64220868       2.82011317       0.00000000
