10
Lattice="16.28999089631971 0.0 0.0 0.0 16.28999089631971 0.0 0.0 0.0 34.46413024517268" Properties=species:S:1:pos:R:3:initial_magmoms:R:1 pbc="T T T"
Si       1.37148768      -1.23695183      -1.40241517       0.00000000
Si       1.62238626       1.26371304       1.26211162       0.00000000
Si      -1.36399428       1.50351813      -1.35874909       0.00000000
Si      -0.89580339      -2.00515728       1.28220422       0.00000000
Si       2.63920806      -2.67290297      -0.01781797       0.00000000
Si      -0.00566892      -2.58035012      -2.74827467       0.00000000
Si       2.70728397       0.13559796      -2.75006681       0.00000000
Si      -2.72474685       0.13861161      -2.74544861       0.00000000
Si       0.75673566      -0.59038218       3.81221743       0.00000000
Si      -0.00607617       2.84724765      -2.74930860       0.00000000
