10
Lattice="16.28999089631971 0.0 0.0 0.0 16.28999089631971 0.0 0.0 0.0 34.46413024517268" Properties=species:S:1:pos:R:3:initial_magmoms:R:1 pbc="T T T"
Si      -1.31522202       1.38458484      -1.40827408       0.00000000
Si      -1.58487039      -1.01896393       1.47546680       0.00000000
Si       1.11909042       1.60515144       1.40588713       0.00000000
Si       1.22303691      -1.73249037      -1.35030538       0.00000000
Si      -1.22098437      -2.83482557      -1.79899414       0.00000000
Si      -2.93760828      -2.24837414      -0.08998589       0.00000000
Si      -0.29227518      -2.37711704       2.91882883       0.00000000
Si       0.02977812       1.87981713      -3.29036128       0.00000000
Si       2.42216010       0.33655140       2.91872888       0.00000000
Si       3.02555799       2.49329853       0.20757757       0.00000000
