10
Lattice="16.28999089631971 0.0 0.0 0.0 16.28999089631971 0.0 0.0 0.0 34.46413024517268" Properties=species:S:1:pos:R:3:initial_magmoms:R:1 pbc="T T T"
Si       0.83795760       1.87211196      -1.14617422       0.00000000
Si       0.42381693       0.28152378       2.29524343       0.00000000
Si      -2.25743562       0.71330652       0.15950008       0.00000000
Si       1.16128152      -1.58392557      -1.40479320       0.00000000
Si      -1.95291036       2.87513613       1.02679041       0.00000000
Si       3.17554002       1.69170021      -0.92267421       0.00000000
Si      -0.50927427      -2.17937394      -2.97849519       0.00000000
Si      -1.64765205      -0.28922895       3.34078233       0.00000000
Si      -1.47479886      -0.05470182      -3.43335304       0.00000000
Si       0.39376188       1.43280324      -3.44893083       0.00000000
