10
Lattice="16.28999089631971 0.0 0.0 0.0 16.28999089631971 0.0 0.0 0.0 34.46413024517268" Properties=species:S:1:pos:R:3:initial_magmoms:R:1 pbc="T T T"
Si       0.92259229       1.75949919      -1.24754504       0.00000000
Si      -1.38922456       1.29665142       1.44133554       0.00000000
Si       1.34911336      -1.40844969       1.44493015       0.00000000
Si      -1.14475043      -1.32295977      -1.76023373       0.00000000
Si      -2.63192547      -2.54550798      -0.07941574       0.00000000
Si      -2.72634231       2.58649362      -0.16839528       0.00000000
Si       2.67849139       2.66861151       0.10846212       0.00000000
Si      -0.86629080       3.40073298      -1.55548222       0.00000000
Si      -0.01386116       2.66002668       2.82316872       0.00000000
Si       2.70281236      -0.05791095       2.82627049       0.00000000
