10
Lattice="16.28999089631971 0.0 0.0 0.0 16.28999089631971 0.0 0.0 0.0 34.46413024517268" Properties=species:S:1:pos:R:3:initial_magmoms:R:1 pbc="T T T"
Si      -1.20438486       1.45152045      -1.45793692       0.00000000
Si       1.18770390       1.38728898       1.53504498       0.00000000
Si      -1.49208255      -1.31424462       1.39011633       0.00000000
Si       0.87845454      -0.14550228      -2.27997581       0.00000000
Si      -2.63645505       2.61597852       0.10938921       0.00000000
Si       2.99481876       2.28398832       0.19282692       0.00000000
Si      -0.11002266      -2.60605791       2.94678615       0.00000000
Si      -2.72728809      -2.84825763      -0.05372961       0.00000000
Si       2.59188561       0.10041156       2.97581875       0.00000000
Si      -2.81947320       0.09640422       2.96038225       0.00000000
