10
Lattice="16.28999089631971 0.0 0.0 0.0 16.28999089631971 0.0 0.0 0.0 34.46413024517268" Properties=species:S:1:pos:R:3:initial_magmoms:R:1 pbc="T T T"
Si       1.35653346      -1.35739683       1.36329836       0.00000000
Si      -1.36137159       1.35928647       1.36316051       0.00000000
Si      -1.37028222      -1.36809936      -1.36554198       0.00000000
Si       1.38126168       1.34978940      -1.37962403       0.00000000
Si      -0.11305260       2.55819789      -2.73834900       0.00000000
Si       2.71052568      -2.71112841       0.00661712       0.00000000
Si      -2.71158453       2.71531494       0.00765104       0.00000000
Si      -2.71352304      -2.71432125       0.00368766       0.00000000
Si       2.71467963       2.71590138       0.00134410       0.00000000
Si       2.71314837       0.00102627       2.71991068       0.00000000
