10
Lattice="16.28999089631971 0.0 0.0 0.0 16.28999089631971 0.0 0.0 0.0 34.46413024517268" Properties=species:S:1:pos:R:3:initial_magmoms:R:1 pbc="T T T"
Si      -1.35200484      -1.35721764      -1.34768610       0.00000000
Si       1.36168110       1.35290079      -1.34737592       0.00000000
Si      -1.26596106       1.33556823       1.45900531       0.00000000
Si       1.29986055      -1.33423245       1.43381201       0.00000000
Si       0.69071229       1.99335843       2.69613042       0.00000000
Si      -0.39112290      -2.09346048       2.93700036       0.00000000
Si       2.53024425       0.30949371       2.64670883       0.00000000
Si      -2.10763278      -0.38299419       3.05459203       0.00000000
Si      -2.70974376      -0.00211770      -2.70774483       0.00000000
Si       0.00381186       2.71090035      -2.70667645       0.00000000
