10
Lattice="16.28999089631971 0.0 0.0 0.0 16.28999089631971 0.0 0.0 0.0 34.46413024517268" Properties=species:S:1:pos:R:3:initial_magmoms:R:1 pbc="T T T"
Si       1.26596106      -1.33556823      -1.45900531       0.00000000
Si       1.95667335       0.65779020       1.23712511       0.00000000
Si      -1.44420624       1.37287233      -1.42774632       0.00000000
Si      -0.84167172      -1.71856242       1.59558673       0.00000000
Si      -0.64887957      -0.14685435       3.44248604       0.00000000
Si       2.56582161      -2.66980068      -0.02519329       0.00000000
Si       2.62658331       2.63208933      -0.01530208       0.00000000
Si       0.87483816      -3.42902871       1.47799505       0.00000000
Si       2.62764216       0.01733256      -2.80638123       0.00000000
Si      -2.75338467      -2.70169650      -0.01268281       0.00000000
