10
Lattice="16.28999089631971 0.0 0.0 0.0 16.28999089631971 0.0 0.0 0.0 34.46413024517268" Properties=species:S:1:pos:R:3:initial_magmoms:R:1 pbc="T T T"
Si      -0.41234877      -0.06704964       2.30703017       0.00000000
Si      -1.95667335      -0.65779020      -1.23712511       0.00000000
Si       0.66990996       1.97429913      -1.25242719       0.00000000
Si       1.83953196      -1.68386472      -0.04942159       0.00000000
Si      -0.69071229      -1.99335843      -2.69613042       0.00000000
Si       2.04400404       0.72560547      -2.68972008       0.00000000
Si      -2.60555292      -0.80464455       2.20536093       0.00000000
Si       0.60914826      -3.32759088      -1.26231840       0.00000000
Si       2.03569614       2.29969188       1.99833478       0.00000000
Si      -2.79834507      -2.37635262       0.35846162       0.00000000
