10
Lattice="16.28999089631971 0.0 0.0 0.0 16.28999089631971 0.0 0.0 0.0 34.46413024517268" Properties=species:S:1:pos:R:3:initial_magmoms:R:1 pbc="T T T"
Si      -1.45751517       0.83756664       1.60599490       0.00000000
Si       0.63842139      -2.11607100       0.74035886       0.00000000
Si      -1.14298785      -0.31863240      -2.06733201       0.00000000
Si       1.48608783       1.85259654       0.41991120       0.00000000
Si       2.51721225      -2.16481068      -0.71702663       0.00000000
Si      -1.24779771       3.15542187       1.09551192       0.00000000
Si      -0.23338683       0.25202259       3.59302544       0.00000000
Si       1.08261711      -1.67676228       3.04311547       0.00000000
Si       3.10682880       1.70041536      -1.21882465       0.00000000
Si      -3.43199349      -0.46154457       1.48185504       0.00000000
