10
Lattice="16.28999089631971 0.0 0.0 0.0 16.28999089631971 0.0 0.0 0.0 34.46413024517268" Properties=species:S:1:pos:R:3:initial_magmoms:R:1 pbc="T T T"
Si      -1.33418358      -1.33675740       1.37102522       0.00000000
Si      -1.45583730       1.22119614      -1.41577003       0.00000000
Si       1.37435472       1.38323277       1.36564882       0.00000000
Si       1.26434835      -1.49387445      -1.37497482       0.00000000
Si       0.33047523       2.27659266      -2.64952420       0.00000000
Si       2.16114543       0.27600147      -2.77413110       0.00000000
Si      -2.69757513      -2.68916949      -0.00710651       0.00000000
Si       0.01602936      -2.69278587       2.72653469       0.00000000
Si      -2.69754255       0.01962945       2.72581094       0.00000000
Si      -2.70026298       2.72706842      -0.00311901       0.00000000
