10
Lattice="16.28999089631971 0.0 0.0 0.0 16.28999089631971 0.0 0.0 0.0 34.46413024517268" Properties=species:S:1:pos:R:3:initial_magmoms:R:1 pbc="T T T"
Si      -1.35711384      -1.35671265      -1.35581964       0.00000000
Si      -1.35707403       1.35729909       1.35764624       0.00000000
Si       1.35769982       1.35663120      -1.35816320       0.00000000
Si       1.35769982      -1.35801585       1.35747392       0.00000000
Si       0.00017919      -2.71334385       2.71418963       0.00000000
Si      -2.71464446       2.71467963      -0.00003446       0.00000000
Si      -2.71454672      -2.71479366      -0.00044803       0.00000000
Si      -2.71493768      -0.00185706       2.71449981       0.00000000
Si       2.71488488       2.71546155       0.00003446       0.00000000
Si      -2.71726715       0.00252495      -2.71332803       0.00000000
