10
Lattice="16.28999089631971 0.0 0.0 0.0 16.28999089631971 0.0 0.0 0.0 34.46413024517268" Properties=species:S:1:pos:R:3:initial_magmoms:R:1 pbc="T T T"
Si       1.37409408      -1.24869366      -1.43729289       0.00000000
Si       0.97362072       1.69914474       1.32524994       0.00000000
Si      -0.66990996      -1.97429913       1.25242719       0.00000000
Si      -1.36731744       1.43262405      -1.41826868       0.00000000
Si       1.36578618       0.32539275       3.25076197       0.00000000
Si      -0.88532892       3.39136853       1.24132974       0.00000000
Si      -2.62658331      -2.63208933       0.01530208       0.00000000
Si       2.64968253       2.72362284      -0.05869245       0.00000000
Si       2.77519698      -2.61120555      -0.13692607       0.00000000
Si       0.00105885      -2.61475677      -2.79107915       0.00000000
