10
Lattice="16.28999089631971 0.0 0.0 0.0 16.28999089631971 0.0 0.0 0.0 34.46413024517268" Properties=species:S:1:pos:R:3:initial_magmoms:R:1 pbc="T T T"
Si       2.23806681      -0.72119088      -0.00403231       0.00000000
Si      -0.50285601       1.88760375       1.41888904       0.00000000
Si      -0.93760353      -2.03178654       0.94383520       0.00000000
Si      -0.87773778       0.91189791      -2.09011281       0.00000000
Si      -3.14629947      -1.32831918       0.99525571       0.00000000
Si       2.28441186      -2.85148305      -1.08672356       0.00000000
Si      -2.68188786       2.64681549       0.67942624       0.00000000
Si      -2.51514342      -0.64244502      -2.83471076       0.00000000
Si       3.64376349       1.04192469      -0.71271861       0.00000000
Si      -2.04990102       2.97082359      -1.61953931       0.00000000
