10
Lattice="16.28999089631971 0.0 0.0 0.0 16.28999089631971 0.0 0.0 0.0 34.46413024517268" Properties=species:S:1:pos:R:3:initial_magmoms:R:1 pbc="T T T"
Si       1.35769005       1.35670450      -1.35633660       0.00000000
Si      -1.35713619       1.35781222       1.35761178       0.00000000
Si       1.35782037      -1.35729167       1.35747392       0.00000000
Si      -1.35951453      -1.35857574      -1.35688803       0.00000000
Si      -2.71119357       0.00002443      -2.71539588       0.00000000
Si      -0.00091224      -2.71076907      -2.71742926       0.00000000
Si      -2.71407690       0.00042843       2.71491338       0.00000000
Si      -2.71435383       2.71480180      -0.00010339       0.00000000
Si       2.71500543      -2.71427142       0.00031018       0.00000000
Si      -2.71482624      -2.71454835       0.00037911       0.00000000
