10
Lattice="16.28999089631971 0.0 0.0 0.0 16.28999089631971 0.0 0.0 0.0 34.46413024517268" Properties=species:S:1:pos:R:3:initial_magmoms:R:1 pbc="T T T"
Si      -1.60417404      -0.93112404      -1.37928973       0.00000000
Si       1.87320895      -1.48109073       0.25961844       0.00000000
Si      -1.35832536       0.05860490       2.02028844       0.00000000
Si       1.11843882       1.74389663      -1.37853152       0.00000000
Si       0.27168462       1.21237022       3.14126937       0.00000000
Si      -0.18155205      -2.21337510      -2.74472487       0.00000000
Si       2.54730218       0.50682588      -2.75651161       0.00000000
Si      -3.28023585      -1.95560214       0.00465266       0.00000000
Si       1.24413346      -3.46420275      -1.26276644       0.00000000
Si       2.03782428      -1.75701075       2.87045008       0.00000000
