10
Lattice="16.28999089631971 0.0 0.0 0.0 16.28999089631971 0.0 0.0 0.0 34.46413024517268" Properties=species:S:1:pos:R:3:initial_magmoms:R:1 pbc="T T T"
Si      -1.30722363       1.96165809      -0.04935266       0.00000000
Si       0.57884886      -0.89104671       2.13922422       0.00000000
Si      -1.67514957      -1.48258548      -0.84323435       0.00000000
Si       1.46991186       0.32825979      -1.88126006       0.00000000
Si      -0.39977289       0.64288485      -3.37831379       0.00000000
Si      -1.11063591      -1.63629792      -3.08809119       0.00000000
Si      -0.92243754       2.71707426      -2.41073279       0.00000000
Si      -0.99808830      -2.63844080       2.59377189       0.00000000
Si      -1.69425774      -3.41352389       0.47043564       0.00000000
Si       2.64769515      -1.57532445      -2.39756749       0.00000000
