10
Lattice="16.28999089631971 0.0 0.0 0.0 16.28999089631971 0.0 0.0 0.0 34.46413024517268" Properties=species:S:1:pos:R:3:initial_magmoms:R:1 pbc="T T T"
Si      -1.63000998      -1.15376531      -1.12098093       0.00000000
Si      -1.17778329       1.90358424       0.51630742       0.00000000
Si       1.46539206      -1.08217728       1.46162458       0.00000000
Si      -0.27168462      -1.21237022      -3.14126937       0.00000000
Si       0.66920949       3.32654832       0.62362879       0.00000000
Si       1.76613966      -2.96938097      -0.27081929       0.00000000
Si      -1.73838735      -3.18579362       0.02512436       0.00000000
Si       3.29949782       0.43655571       1.74636738       0.00000000
Si      -3.75833106      -0.06097347      -0.69052370       0.00000000
Si      -3.04746804       2.21820930      -0.98074630       0.00000000
