10
Lattice="16.28999089631971 0.0 0.0 0.0 16.28999089631971 0.0 0.0 0.0 34.46413024517268" Properties=species:S:1:pos:R:3:initial_magmoms:R:1 pbc="T T T"
Si      -0.01726740       1.03097781      -2.14946008       0.00000000
Si      -1.73928330      -1.62698656       0.45213518       0.00000000
Si       2.09210841      -1.25193537      -0.14488728       0.00000000
Si      -0.58722192       2.12597532       1.79296291       0.00000000
Si      -0.93416634      -3.34976876      -0.95193427       0.00000000
Si       1.71655875      -2.78428599       1.65066044       0.00000000
Si       3.76229509       0.45445842       0.04042645       0.00000000
Si       1.30517109       2.99524230      -2.00508975       0.00000000
Si      -2.55221946       2.84351724       0.62941876       0.00000000
Si      -3.82466394      -0.84818772      -0.25334596       0.00000000
