10
Lattice="16.28999089631971 0.0 0.0 0.0 16.28999089631971 0.0 0.0 0.0 34.46413024517268" Properties=species:S:1:pos:R:3:initial_magmoms:R:1 pbc="T T T"
Si       1.35803214       1.35627282      -1.35650892       0.00000000
Si      -1.35891180      -1.35643572      -1.35706035       0.00000000
Si       1.35726651      -1.35790182       1.35733606       0.00000000
Si      -1.35814617       1.35791811       1.35730160       0.00000000
Si       2.71202436       0.00254124      -2.71319017       0.00000000
Si      -2.71202436      -0.00065160      -2.71611962       0.00000000
Si       2.71435383      -0.00184077       2.71463766       0.00000000
Si       2.71464705       2.71469592       0.00010339       0.00000000
Si       2.71474479      -2.71477737      -0.00031018       0.00000000
Si      -2.71494027       2.71476108       0.00044803       0.00000000
