10
Lattice="16.28999089631971 0.0 0.0 0.0 16.28999089631971 0.0 0.0 0.0 34.46413024517268" Properties=species:S:1:pos:R:3:initial_magmoms:R:1 pbc="T T T"
Si      -1.13446818      -1.63307250       1.23164531       0.00000000
Si       1.30733766      -1.40457267      -1.40920461       0.00000000
Si      -1.41911964       1.31427720      -1.40465534       0.00000000
Si       1.46841318       1.28225106       1.59031371       0.00000000
Si       2.70061177       2.62000215      -0.00385998       0.00000000
Si      -0.04939128       2.66761782      -2.77905116       0.00000000
Si       2.66756602      -0.04844646      -2.78380721       0.00000000
Si       2.60496648      -2.89466784      -0.04752606       0.00000000
Si      -2.82809061       2.69478954       0.00051696       0.00000000
Si      -1.28925576      -1.20798495       3.49152852       0.00000000
