10
Lattice="16.28999089631971 0.0 0.0 0.0 16.28999089631971 0.0 0.0 0.0 34.46413024517268" Properties=species:S:1:pos:R:3:initial_magmoms:R:1 pbc="T T T"
Si       2.14285895      -0.82968228      -0.04976623       0.00000000
Si      -1.26016182      -0.52536879      -1.89880232       0.00000000
Si      -0.92587473      -0.65541186       2.04996208       0.00000000
Si       0.13690116       2.34566226       0.03405058       0.00000000
Si       2.79312642      -0.11803734       2.07019253       0.00000000
Si      -2.47790448       1.11638628       2.22745245       0.00000000
Si      -2.11548456       2.89904985       0.59984852       0.00000000
Si       1.01470410      -0.89914284       3.47150485       0.00000000
Si       0.23504841      -0.54190314      -3.72908990       0.00000000
Si       1.02949542       3.06647847      -2.00732992       0.00000000
