10
Lattice="16.28999089631971 0.0 0.0 0.0 16.28999089631971 0.0 0.0 0.0 34.46413024517268" Properties=species:S:1:pos:R:3:initial_magmoms:R:1 pbc="T T T"
Si      -0.67412907       1.53608184      -1.66523878       0.00000000
Si       2.37118869      -0.24493644      -0.30397380       0.00000000
Si      -0.47420190       1.18444590       2.11864913       0.00000000
Si      -1.29950217      -2.21412051      -0.09674087       0.00000000
Si      -1.31072598      -0.50894847       3.52930954       0.00000000
Si      -3.26449971      -1.49657859      -1.26028502       0.00000000
Si      -0.95913891       0.42694461      -3.71730317       0.00000000
Si       2.97609733      -1.76521698       1.72458604       0.00000000
Si       2.53346967      -1.58858451      -2.47325076       0.00000000
Si      -2.85135273       2.34294183      -1.22327052       0.00000000
