10
Lattice="16.28999089631971 0.0 0.0 0.0 16.28999089631971 0.0 0.0 0.0 34.46413024517268" Properties=species:S:1:pos:R:3:initial_magmoms:R:1 pbc="T T T"
Si       1.35565380       1.35881406       1.35654339       0.00000000
Si      -1.35707103      -1.35671265       1.35785303       0.00000000
Si      -1.35780408       1.35755973      -1.35681910       0.00000000
Si       1.35767376      -1.35759231      -1.35709482       0.00000000
Si      -0.00019548       2.71539639       2.71219071       0.00000000
Si       2.71404717       0.00027693      -2.71474106       0.00000000
Si       0.00000000       2.71446786      -2.71470659       0.00000000
Si      -2.71511946      -2.71437012       0.00010339       0.00000000
Si      -2.71464705       2.71500543       0.00027571       0.00000000
Si       0.00105885      -2.71601541      -2.71370713       0.00000000
