10
Lattice="16.28999089631971 0.0 0.0 0.0 16.28999089631971 0.0 0.0 0.0 34.46413024517268" Properties=species:S:1:pos:R:3:initial_magmoms:R:1 pbc="T T T"
Si      -1.61210727      -1.02314232      -1.34358487       0.00000000
Si      -1.16721108       0.19808640       2.02263201       0.00000000
Si       1.11068578       1.77860736      -1.14882796       0.00000000
Si       1.61045288      -1.45018467       1.15982202       0.00000000
Si       2.42565335       0.34072164      -2.59956187       0.00000000
Si      -0.29336661      -2.40386643      -2.64157367       0.00000000
Si       0.24664689       1.80630036       3.29460037       0.00000000
Si       3.18284513       0.44331606       1.99705961       0.00000000
Si      -3.21768225      -2.07010062      -0.00365320       0.00000000
Si      -2.08502226      -2.05286580       2.68765224       0.00000000
