10
Lattice="16.28999089631971 0.0 0.0 0.0 16.28999089631971 0.0 0.0 0.0 34.46413024517268" Properties=species:S:1:pos:R:3:initial_magmoms:R:1 pbc="T T T"
Si      -1.56519207      -1.74503367      -0.04177055       0.00000000
Si      -0.05833449       1.55391939      -1.76104911       0.00000000
Si       2.01663262      -0.65155113      -1.02999557       0.00000000
Si       0.18497295       0.83046420       2.20560218       0.00000000
Si      -1.47219246      -0.05429457      -3.03301748       0.00000000
Si       1.34182752      -2.77022853      -1.71052467       0.00000000
Si       3.53826035       0.05765031       0.56390241       0.00000000
Si       2.51492255       1.09522557       2.45019424       0.00000000
Si      -3.28228839      -0.98543097       1.35364840       0.00000000
Si      -1.10425023       2.87292069       2.13560549       0.00000000
