10
Lattice="16.28999089631971 0.0 0.0 0.0 16.28999089631971 0.0 0.0 0.0 34.46413024517268" Properties=species:S:1:pos:R:3:initial_magmoms:R:1 pbc="T T T"
Si      -0.14599098       1.44482526       1.80512876       0.00000000
Si      -1.79356158       0.09961335      -1.49774301       0.00000000
Si      -0.94043799      -2.16355635       0.08336878       0.00000000
Si       2.25525995       0.16355160      -0.73784298       0.00000000
Si       3.29843897      -0.08801487       1.31742658       0.00000000
Si       2.16810845       1.72792917       2.29941359       0.00000000
Si      -0.82236807      -0.58010319      -3.53567710       0.00000000
Si      -2.43564822      -2.14702200       1.91365637       0.00000000
Si       2.66211899      -1.50276879      -2.30051644       0.00000000
Si       0.64540395      -3.91598568       0.02571026       0.00000000
