10
Lattice="16.28999089631971 0.0 0.0 0.0 16.28999089631971 0.0 0.0 0.0 34.46413024517268" Properties=species:S:1:pos:R:3:initial_magmoms:R:1 pbc="T T T"
Si       0.14599098      -1.44482526      -1.80512876       0.00000000
Si      -1.01546973       2.08466388      -0.25889469       0.00000000
Si      -0.89259426      -0.72081621       2.04138050       0.00000000
Si       2.31409943       0.28310391       0.49428483       0.00000000
Si       0.49319997       0.81705753       3.17921440       0.00000000
Si       0.01795158       2.76353334       1.86416585       0.00000000
Si       2.40125093      -1.28127366      -2.54297174       0.00000000
Si       3.44442995      -1.53284013      -0.48770218       0.00000000
Si      -1.02949542      -3.06647847       2.00732992       0.00000000
Si      -3.38949288       1.80167400      -0.63993033       0.00000000
