10
Lattice="16.28999089631971 0.0 0.0 0.0 16.28999089631971 0.0 0.0 0.0 34.46413024517268" Properties=species:S:1:pos:R:3:initial_magmoms:R:1 pbc="T T T"
Si       1.35707103       1.35591625       1.35712928       0.00000000
Si      -1.35652857       1.35733837      -1.35764624       0.00000000
Si      -1.35697818      -1.35994019       1.35678464       0.00000000
Si       1.35840681      -1.35757814      -1.35788749       0.00000000
Si      -2.71128221      -0.00032792       2.71443088       0.00000000
Si       0.00022806       2.71336521       2.71494784       0.00000000
Si      -2.71382295       2.71463583      -0.00020678       0.00000000
Si      -2.71378159       0.00084751      -2.71470659       0.00000000
Si      -2.71418152      -2.71473062      -0.00024125       0.00000000
Si       2.71539639       2.71497792       0.00037911       0.00000000
