10
Lattice="16.28999089631971 0.0 0.0 0.0 16.28999089631971 0.0 0.0 0.0 34.46413024517268" Properties=species:S:1:pos:R:3:initial_magmoms:R:1 pbc="T T T"
Si      -1.35684297       1.35744570       1.35709482       0.00000000
Si       1.35780408      -1.35755973       1.35681910       0.00000000
Si       1.35780408       1.35690813      -1.35788749       0.00000000
Si      -1.35904212      -1.35689184      -1.35702589       0.00000000
Si      -2.70925506      -0.00086337      -2.71253535       0.00000000
Si       2.71345788       0.00125433       2.71336249       0.00000000
Si       0.00058644       2.71363707       2.71384499       0.00000000
Si       0.00073305      -2.71427238       2.71467213       0.00000000
Si      -2.71410948      -2.71508688       0.00006893       0.00000000
Si      -2.71463076       2.71534752      -0.00010339       0.00000000
