10
Lattice="16.28999089631971 0.0 0.0 0.0 16.28999089631971 0.0 0.0 0.0 34.46413024517268" Properties=species:S:1:pos:R:3:initial_magmoms:R:1 pbc="T T T"
Si      -1.34327340      -1.35068535       1.35836999       0.00000000
Si       1.35493704       1.33938009       1.37153529       0.00000000
Si      -1.35702216       1.35580041      -1.35516482       0.00000000
Si       1.35584928      -1.35658233      -1.35564732       0.00000000
Si      -0.06768495       2.62163115       2.73697043       0.00000000
Si       0.05782950      -2.71319724       2.65873681       0.00000000
Si      -2.71445157      -0.00039096      -2.71191500       0.00000000
Si      -2.71256193       2.71418400       0.00651372       0.00000000
Si       0.00040725       2.71476754      -2.71201839       0.00000000
Si       2.71521750       0.00039096      -2.71188053       0.00000000
