10
Lattice="16.28999089631971 0.0 0.0 0.0 16.28999089631971 0.0 0.0 0.0 34.46413024517268" Properties=species:S:1:pos:R:3:initial_magmoms:R:1 pbc="T T T"
Si      -1.92373823       1.29003768       0.01378566       0.00000000
Si       0.28057896      -1.91602980      -1.28795973       0.00000000
Si       1.86790914       1.23227334      -0.79109009       0.00000000
Si       0.08105904      -1.36140417       1.97645005       0.00000000
Si      -3.40342802      -0.43873857       0.74128939       0.00000000
Si       0.94268601      -0.83184885      -3.31331441       0.00000000
Si      -0.32580000       0.30491622       3.53912351       0.00000000
Si       2.88846135       1.56498030       1.40134678       0.00000000
Si      -0.63814446       0.93874383      -3.46626630       0.00000000
Si      -1.24893312       3.40871508       0.69431476       0.00000000
