10
Lattice="16.28999089631971 0.0 0.0 0.0 16.28999089631971 0.0 0.0 0.0 34.46413024517268" Properties=species:S:1:pos:R:3:initial_magmoms:R:1 pbc="T T T"
Si      -0.66192786      -1.21987665       1.89328805       0.00000000
Si       2.32994960       0.26476137       0.24459207       0.00000000
Si      -0.18497295      -0.83046420      -2.20560218       0.00000000
Si      -1.28922318       2.04245649      -0.06999669       0.00000000
Si       2.22246818       2.56844430       0.89175987       0.00000000
Si      -3.03595101      -1.50286653       1.51225242       0.00000000
Si       0.43559460       3.71299992      -0.25134704       0.00000000
Si       3.35328740      -0.77281389      -1.64169976       0.00000000
Si      -1.75016502      -2.57549787      -2.24737273       0.00000000
Si       0.35354187      -3.30454053       2.15218274       0.00000000
