10
Lattice="16.28999089631971 0.0 0.0 0.0 16.28999089631971 0.0 0.0 0.0 34.46413024517268" Properties=species:S:1:pos:R:3:initial_magmoms:R:1 pbc="T T T"
Si      -1.34583582      -1.36890572       1.35644000       0.00000000
Si       1.35684297      -1.35744896      -1.35781856       0.00000000
Si      -1.35693419       1.36049193      -1.35836999       0.00000000
Si       1.37515293       1.36163223       1.37098387       0.00000000
Si      -0.05103657       2.66805765       2.70240289       0.00000000
Si      -2.71151027      -2.71369313      -0.00051696       0.00000000
Si      -2.71209964       2.71438641      -0.00186106       0.00000000
Si       2.71551042      -2.71126461       0.00547980       0.00000000
Si      -0.00022806      -2.71336521      -2.71494784       0.00000000
Si      -2.71405101       0.00127062      -2.71515463       0.00000000
