10
Lattice="16.28999089631971 0.0 0.0 0.0 16.28999089631971 0.0 0.0 0.0 34.46413024517268" Properties=species:S:1:pos:R:3:initial_magmoms:R:1 pbc="T T T"
Si       1.35613436      -1.35835794       1.36098926       0.00000000
Si      -1.35862463       1.35912612       1.36123051       0.00000000
Si       1.35525470       1.34384355      -1.38119215       0.00000000
Si      -1.35513457      -1.37054286      -1.39561195       0.00000000
Si      -0.09967851       2.66437515      -2.72368450       0.00000000
Si       2.71081075      -2.71440270       0.00392891       0.00000000
Si      -2.71484157      -2.71495656      -0.00027571       0.00000000
Si       2.71579550       2.71466727       0.00017232       0.00000000
Si       2.71356376       0.00070047       2.71804961       0.00000000
Si      -0.00128691      -2.71476108       2.71829086       0.00000000
