10
Lattice="16.28999089631971 0.0 0.0 0.0 16.28999089631971 0.0 0.0 0.0 34.46413024517268" Properties=species:S:1:pos:R:3:initial_magmoms:R:1 pbc="T T T"
Si      -1.11068578      -1.77860736       1.14882796       0.00000000
Si      -1.42568551       1.25082765      -1.48195843       0.00000000
Si       1.31496757      -1.43788572      -1.45073391       0.00000000
Si       0.62907549       1.98311202       1.52238488       0.00000000
Si       2.56387300       2.79203825       0.15746670       0.00000000
Si      -2.84830750       2.53307871      -0.11652329       0.00000000
Si      -0.06250573       2.62624122      -2.85070213       0.00000000
Si       2.64763618      -0.08677683      -2.84684214       0.00000000
Si      -1.24413346       3.46420275       1.26276644       0.00000000
Si      -2.72279305      -2.80174968      -0.19475691       0.00000000
