10
Lattice="16.28999089631971 0.0 0.0 0.0 16.28999089631971 0.0 0.0 0.0 34.46413024517268" Properties=species:S:1:pos:R:3:initial_magmoms:R:1 pbc="T T T"
Si       2.18442384       0.81220427      -0.14802352       0.00000000
Si       0.10748142      -2.30368293      -0.64716780       0.00000000
Si      -1.78687358       1.14455562      -1.14310691       0.00000000
Si      -0.23106713       0.19091880       2.40222015       0.00000000
Si      -2.22246818      -2.56844430      -0.89175987       0.00000000
Si       3.10710573       0.06335181       1.94174465       0.00000000
Si      -3.51169136      -0.52598781      -0.96175656       0.00000000
Si       1.65123585       1.48176513       3.08102604       0.00000000
Si      -2.34027746       3.11612129       0.09584480       0.00000000
Si       3.51640827      -0.40547439      -1.63659907       0.00000000
