10
Lattice="10.86 0.0 0.0 0.0 10.86 0.0 0.0 0.0 10.86" Properties=species:S:1:pos:R:3:initial_magmoms:R:1 pbc="T T T"
Si      -1.26596106       1.13162286      -1.25842422       0.00000000
Si       1.17249990       1.59108774       1.01165244       0.00000000
Si       1.44903894      -1.58337714      -1.25842422       0.00000000
Si      -1.26596106      -1.58337714       1.45657578       0.00000000
Si       0.02983242       2.56415460      -2.36312514       0.00000000
Si      -2.62346106       2.48912286       0.09907578       0.00000000
Si       2.62676250      -0.08530530       2.55642228       0.00000000
Si      -2.62346106      -0.22587714      -2.61592422       0.00000000
Si       0.00897036       2.61741204       2.66845404       0.00000000
Si       1.72046292       3.28387938      -0.80166348       0.00000000
