10
Lattice="10.86 0.0 0.0 0.0 10.86 0.0 0.0 0.0 10.86" Properties=species:S:1:pos:R:3:initial_magmoms:R:1 pbc="T T T"
Si       1.35750000       1.35750000       1.35750000       0.00000000
Si      -1.35750000      -1.35750000       1.35750000       0.00000000
Si      -1.35750000       1.35750000      -1.35750000       0.00000000
Si       1.35750000      -1.35750000      -1.35750000       0.00000000
Si       2.62346106      -2.48912286      -0.09907578       0.00000000
Si       2.65329348       0.07503174      -2.46220092       0.00000000
Si      -2.56396998       2.62075692      -0.00200910       0.00000000
Si       2.63243142       0.12828918       2.56937826       0.00000000
Si      -2.80205376      -0.11552868      -2.57564448       0.00000000
Si      -2.77983420       0.20275620       2.60748600       0.00000000
