10
Lattice="10.86 0.0 0.0 0.0 10.86 0.0 0.0 0.0 10.86" Properties=species:S:1:pos:R:3:initial_magmoms:R:1 pbc="T T T"
Si      -1.27493142       1.22921082      -1.21187826       0.00000000
Si       1.16352954      -1.02632430      -1.65680160       0.00000000
Si       1.44006858       1.22921082       1.50312174       0.00000000
Si      -1.27493142      -1.48578918       1.50312174       0.00000000
Si       0.18027600       2.66915994      -2.40880230       0.00000000
Si      -2.63243142      -0.12828918      -2.56937826       0.00000000
Si      -2.63243142       2.58671082       0.14562174       0.00000000
Si      -0.00897036      -2.61741204      -2.66845404       0.00000000
Si       2.61779214      -2.70271734      -0.11203176       0.00000000
Si       2.73096420       2.60758374       0.19402476       0.00000000
