10
Lattice="10.86 0.0 0.0 0.0 10.86 0.0 0.0 0.0 10.86" Properties=species:S:1:pos:R:3:initial_magmoms:R:1 pbc="T T T"
Si       1.26186684      -1.35814074      -1.27522464       0.00000000
Si      -1.45313316       1.35685926      -1.27522464       0.00000000
Si      -1.45313316      -1.35814074       1.43977536       0.00000000
Si       2.48222676      -0.09656712       2.64737478       0.00000000
Si       2.53231308       2.59883058       0.22163088       0.00000000
Si       2.61936684      -0.00064074      -2.63272464       0.00000000
Si       2.61936684      -2.71564074       0.08227536       0.00000000
Si      -0.09563316       2.71435926      -2.63272464       0.00000000
Si      -0.09563316      -2.71564074      -2.63272464       0.00000000
Si      -2.81063316      -0.00064074      -2.63272464       0.00000000
