10
Lattice="16.28999089631971 0.0 0.0 0.0 16.28999089631971 0.0 0.0 0.0 34.61538196595647" Properties=species:S:1:pos:R:3:initial_magmoms:R:1 pbc="T T T"
Si       0.66990996      -1.94447214      -1.21046597       0.00000000
Si       2.26895265       0.68082426       0.45394637       0.00000000
Si      -1.25263095      -0.99082296       1.81997395       0.00000000
Si      -0.90930780       1.95134652      -1.16224671       0.00000000
Si       2.08946943      -2.88684864       0.46997330       0.00000000
Si       1.14979707      -1.23165432      -3.41830549       0.00000000
Si       3.41692524      -1.15733934       1.30745832       0.00000000
Si      -2.39545169      -2.90924739       0.95905431       0.00000000
Si      -2.89669499       0.53585955       2.57926278       0.00000000
Si       3.40640190       1.22450301      -1.55751998       0.00000000
