10
Lattice="16.28999089631971 0.0 0.0 0.0 16.28999089631971 0.0 0.0 0.0 34.61538196595647" Properties=species:S:1:pos:R:3:initial_magmoms:R:1 pbc="T T T"
Si      -1.32947577       1.21120679      -1.50504303       0.00000000
Si       1.08178632       1.75424371       1.25871984       0.00000000
Si      -1.77495840      -0.98282557       1.34937757       0.00000000
Si       1.39639509      -1.51023061      -1.46575455       0.00000000
Si      -2.83729446       2.42845423      -0.11436929       0.00000000
Si       0.02436984       2.55585832      -2.86767831       0.00000000
Si       2.85397542       2.60029744      -0.06871157       0.00000000
Si      -2.68822467      -0.15873076      -2.86868215       0.00000000
Si      -3.68325045       0.59668934       1.28232754       0.00000000
Si      -2.78614386      -2.80906489      -0.02880001       0.00000000
