10
Lattice="16.28999089631971 0.0 0.0 0.0 16.28999089631971 0.0 0.0 0.0 34.61538196595647" Properties=species:S:1:pos:R:3:initial_magmoms:R:1 pbc="T T T"
Si      -0.72625707      -2.04979823       0.82381194       0.00000000
Si       0.28976652       1.15790949       2.05068560       0.00000000
Si       2.09393289      -0.69990800      -1.01049280       0.00000000
Si      -2.11864482       0.99675252      -0.72726958       0.00000000
Si      -1.93111434       0.73744830       2.66175128       0.00000000
Si       1.20098025      -0.24322599      -3.18285154       0.00000000
Si       0.16065198       2.05029198      -2.74680132       0.00000000
Si       1.56392145       2.98335060      -0.97726201       0.00000000
Si       1.25242407      -2.67386408       2.03310098       0.00000000
Si       0.81171441       3.31490097       1.30254294       0.00000000
