10
Lattice="16.28999089631971 0.0 0.0 0.0 16.28999089631971 0.0 0.0 0.0 34.61538196595647" Properties=species:S:1:pos:R:3:initial_magmoms:R:1 pbc="T T T"
Si       0.54962460      -1.04808231      -1.97522403       0.00000000
Si       0.19201023       2.12669208      -0.95258123       0.00000000
Si       1.53313335       0.05206284       1.80335856       0.00000000
Si      -2.37048822      -0.14910237       0.23586934       0.00000000
Si       1.14030000       2.22172794       2.63000896       0.00000000
Si      -0.39843711       0.46758816      -3.58660558       0.00000000
Si      -2.00736783       2.53159632      -1.86206628       0.00000000
Si       1.42833978       3.41413965       0.56710412       0.00000000
Si      -3.11665167      -1.06640856      -1.90682400       0.00000000
Si       2.77050546      -0.62762112      -2.58628971       0.00000000
