10
Lattice="16.28999089631971 0.0 0.0 0.0 16.28999089631971 0.0 0.0 0.0 34.61538196595647" Properties=species:S:1:pos:R:3:initial_magmoms:R:1 pbc="T T T"
Si      -1.35353610       1.35231435       1.35900066       0.00000000
Si       1.35703845       1.35632169      -1.35737373       0.00000000
Si       1.35321030      -1.35738054       1.36097373       0.00000000
Si      -1.35762489      -1.35816246      -1.35716604       0.00000000
Si      -0.00063531      -2.70203207       2.72360901       0.00000000
Si      -0.00011403       2.71373481      -2.71447054       0.00000000
Si       2.71339272      -0.00014661      -2.71502439       0.00000000
Si      -2.71482624       2.71440270       0.00107308       0.00000000
Si       2.71539639       2.71389771      -0.00117692       0.00000000
Si      -2.71534752      -0.00070047      -2.71467823       0.00000000
