10
Lattice="16.28999089631971 0.0 0.0 0.0 16.28999089631971 0.0 0.0 0.0 34.61538196595647" Properties=species:S:1:pos:R:3:initial_magmoms:R:1 pbc="T T T"
Si       1.35353610      -1.35231435      -1.35900066       0.00000000
Si       1.34540739       1.35931905       1.37104682       0.00000000
Si      -1.36129014       1.36208835      -1.35792758       0.00000000
Si      -1.38118023      -1.35350352       1.37284682       0.00000000
Si       2.70674640      -2.70969489       0.00197308       0.00000000
Si      -2.71741635      -2.70700704       0.00183462       0.00000000
Si       2.70855459       2.71788876       0.00207692       0.00000000
Si      -0.00408879      -2.71047681      -2.71616669       0.00000000
Si       2.71057455       0.00400734      -2.71637439       0.00000000
Si      -0.00377928       2.71904535      -2.71606285       0.00000000
