10
Lattice="16.28999089631971 0.0 0.0 0.0 16.28999089631971 0.0 0.0 0.0 34.61538196595647" Properties=species:S:1:pos:R:3:initial_magmoms:R:1 pbc="T T T"
Si       0.39097629       1.85868900      -1.39292375       0.00000000
Si      -2.07068217      -1.06026723       0.40977712       0.00000000
Si       1.07215893      -1.75135093      -1.32390064       0.00000000
Si       0.74616345       0.91730619       2.14269334       0.00000000
Si      -1.18492808      -3.09412979       1.13150824       0.00000000
Si       2.71821456       1.53399672      -1.67978158       0.00000000
Si       3.66627627       0.01832625      -0.06840003       0.00000000
Si       1.10928384       3.59800488       0.04475771       0.00000000
Si       3.11665167       1.06640856       1.90682400       0.00000000
Si      -0.22416669      -3.71876984      -1.03205819       0.00000000
