10
Lattice="16.28999089631971 0.0 0.0 0.0 16.28999089631971 0.0 0.0 0.0 34.61538196595647" Properties=species:S:1:pos:R:3:initial_magmoms:R:1 pbc="T T T"
Si       2.15441766      -0.96853824       0.96459277       0.00000000
Si      -2.32358931      -1.19803176      -0.20945779       0.00000000
Si      -0.65725263      -1.32152625      -2.19496260       0.00000000
Si      -0.62711613       1.91612754       2.31718958       0.00000000
Si       1.04352111       2.89271304       0.21991164       0.00000000
Si       1.41727887       2.00321388      -1.95248171       0.00000000
Si      -1.90922058      -1.90017963       2.14542796       0.00000000
Si       0.17409123       0.55052055      -3.45434013       0.00000000
Si      -0.82645686      -0.25865262       3.43613243       0.00000000
Si       1.29129201      -1.24393698       3.19860154       0.00000000
