10
Lattice="16.28999089631971 0.0 0.0 0.0 16.28999089631971 0.0 0.0 0.0 34.61538196595647" Properties=species:S:1:pos:R:3:initial_magmoms:R:1 pbc="T T T"
Si       0.89046027       1.84764668      -1.09854365       0.00000000
Si       1.34783460      -1.23458652       1.44465993       0.00000000
Si      -0.78923421      -1.74750975      -1.42597596       0.00000000
Si      -1.39154067       1.46746348       1.42413992       0.00000000
Si       2.51871093      -2.61503370      -0.08824850       0.00000000
Si      -2.59818170      -2.72078838      -0.07504965       0.00000000
Si      -0.02251278      -2.59250463       2.80788366       0.00000000
Si       1.73612304       1.20166443      -3.20223066       0.00000000
Si      -0.90686430       3.51874493      -1.25697595       0.00000000
Si       2.69496873       0.12388545       2.80677597       0.00000000
