10
Lattice="16.28999089631971 0.0 0.0 0.0 16.28999089631971 0.0 0.0 0.0 34.61538196595647" Properties=species:S:1:pos:R:3:initial_magmoms:R:1 pbc="T T T"
Si      -1.35523026      -1.35671265      -1.35820450       0.00000000
Si      -1.35395964       1.35948195       1.35848142       0.00000000
Si       1.35972630       1.35814617      -1.35758142       0.00000000
Si       1.36044306      -1.35589815       1.35983143       0.00000000
Si       2.69296506       0.01319490       2.73122439       0.00000000
Si      -2.71336829      -2.71293660      -0.00062308       0.00000000
Si      -2.71209278       0.00027693      -2.71516285       0.00000000
Si      -2.71187938       2.71546155      -0.00114231       0.00000000
Si       0.00229689      -2.71412577      -2.71485131       0.00000000
Si       0.00262269       2.71518462      -2.71495516       0.00000000
