10
Lattice="16.28999089631971 0.0 0.0 0.0 16.28999089631971 0.0 0.0 0.0 34.61538196595647" Properties=species:S:1:pos:R:3:initial_magmoms:R:1 pbc="T T T"
Si       2.37048822       0.14910237      -0.23586934       0.00000000
Si      -0.48798324      -1.53986112       1.76258162       0.00000000
Si      -0.74616345      -0.91730619      -2.14269334       0.00000000
Si      -0.77349807       2.37094434      -0.08923850       0.00000000
Si       0.36312039       2.68069869      -2.09793563       0.00000000
Si       2.56249845       2.27579445      -1.18845057       0.00000000
Si      -0.35518716       0.94138281      -3.53561709       0.00000000
Si       2.92011282      -0.89897994      -2.21109337       0.00000000
Si       1.07308746      -1.02350070       3.48542476       0.00000000
Si      -2.81684562      -1.97757342      -1.73291622       0.00000000
