10
Lattice="16.28999089631971 0.0 0.0 0.0 16.28999089631971 0.0 0.0 0.0 34.61538196595647" Properties=species:S:1:pos:R:3:initial_magmoms:R:1 pbc="T T T"
Si      -0.59614884      -1.60630803      -1.57437768       0.00000000
Si      -0.80567082       2.12801876      -0.65786570       0.00000000
Si      -0.99971730      -0.23770368       2.15775104       0.00000000
Si       2.39303358      -0.37284552       0.28090398       0.00000000
Si       0.55182375      -3.44447163      -0.72086573       0.00000000
Si       1.00582605       0.28504242       3.43602858       0.00000000
Si       0.56350368       3.49900145       0.69057726       0.00000000
Si      -3.02622588       2.19593177       0.05517695       0.00000000
Si       0.54130041      -1.06262928      -3.58584404       0.00000000
Si       0.62086077      -3.41772345       1.64932003       0.00000000
