10
Lattice="16.28999089631971 0.0 0.0 0.0 16.28999089631971 0.0 0.0 0.0 34.61538196595647" Properties=species:S:1:pos:R:3:initial_magmoms:R:1 pbc="T T T"
Si      -1.35575154      -1.35781711       1.35671604       0.00000000
Si       1.35689184       1.35767376       1.35633527       0.00000000
Si      -1.35827649       1.35744570      -1.35820450       0.00000000
Si       1.35830907      -1.35877008      -1.35775450       0.00000000
Si       0.00004887       2.71197549       2.71374362       0.00000000
Si      -2.71463076       2.71391400      -0.00055385       0.00000000
Si       2.71560816       2.71393029      -0.00013846       0.00000000
Si      -0.00039096       2.71376739      -2.71620131       0.00000000
Si      -2.71542897      -2.71519483      -0.00003462       0.00000000
Si       2.71513575      -2.71561730      -0.00058846       0.00000000
