10
Lattice="16.28999089631971 0.0 0.0 0.0 16.28999089631971 0.0 0.0 0.0 34.61538196595647" Properties=species:S:1:pos:R:3:initial_magmoms:R:1 pbc="T T T"
Si      -0.03984534      -1.11509937       2.03407021       0.00000000
Si       2.22055506      -0.06791301      -0.71304265       0.00000000
Si      -1.34212170      -0.72195814      -1.77653163       0.00000000
Si      -0.28235620       2.30208651       0.34580786       0.00000000
Si      -1.03842071       1.19759193      -3.16066306       0.00000000
Si       1.95403437       2.89119807       1.25937753       0.00000000
Si      -0.46682253       3.14085861      -1.94171632       0.00000000
Si       3.02622588      -2.19593177      -0.05517695       0.00000000
Si       2.02650858      -2.43363545       2.10257409       0.00000000
Si      -2.02415372      -2.39439284       2.21805107       0.00000000
