10
Lattice="16.28999089631971 0.0 0.0 0.0 16.28999089631971 0.0 0.0 0.0 34.61538196595647" Properties=species:S:1:pos:R:3:initial_magmoms:R:1 pbc="T T T"
Si       2.09471481      -0.49451553       1.00100818       0.00000000
Si      -1.22039793      -1.96094689       0.56658489       0.00000000
Si       0.98715771       0.68366035      -2.07979716       0.00000000
Si      -0.85579515       1.90358587       1.26595446       0.00000000
Si      -2.60910414      -0.54296851      -2.18101259       0.00000000
Si       2.98851453       1.67282173       0.67437725       0.00000000
Si      -1.43692461      -1.59991162       2.98305144       0.00000000
Si      -2.29418586       1.76269366      -2.28738572       0.00000000
Si       1.19136915       3.21019048       1.38485836       0.00000000
Si      -1.06209171       0.76594114       3.49158630       0.00000000
