10
Lattice="16.28999089631971 0.0 0.0 0.0 16.28999089631971 0.0 0.0 0.0 34.61538196595647" Properties=species:S:1:pos:R:3:initial_magmoms:R:1 pbc="T T T"
Si       2.04716430       1.30660461       0.11890390       0.00000000
Si       0.85579515      -1.90358587      -1.26595446       0.00000000
Si      -0.20629656      -1.13764473       2.22563184       0.00000000
Si      -1.78608447       1.04423787      -1.51913150       0.00000000
Si       2.95050996      -2.39810140      -0.26494628       0.00000000
Si      -1.43839071      -0.14089221      -3.55334018       0.00000000
Si       3.84430968      -0.23076414      -0.59157721       0.00000000
Si      -0.36460278      -3.86453276      -0.69936957       0.00000000
Si      -0.58112946      -3.50349749       1.71709698       0.00000000
Si       1.99531323      -0.96189192       3.33239007       0.00000000
