10
Lattice="16.28999089631971 0.0 0.0 0.0 16.28999089631971 0.0 0.0 0.0 34.61538196595647" Properties=species:S:1:pos:R:3:initial_magmoms:R:1 pbc="T T T"
Si       0.18611325       1.44673119      -1.81921242       0.00000000
Si      -2.34970218       0.03507237      -0.04697310       0.00000000
Si       1.40326947       0.93305862       1.76953932       0.00000000
Si       1.04032827      -2.29351797      -0.43605021       0.00000000
Si      -2.27929680      -1.05353946       2.01953174       0.00000000
Si      -0.16065198      -2.05029198       2.74680132       0.00000000
Si       1.36510200      -0.11974779      -3.19036308       0.00000000
Si       1.07787672       3.30111963      -0.53404641       0.00000000
Si       2.81251737      -1.44746424      -1.76348162       0.00000000
Si       3.15982017      -0.67947219       1.70878929       0.00000000
