10
Lattice="16.28999089631971 0.0 0.0 0.0 16.28999089631971 0.0 0.0 0.0 34.61538196595647" Properties=species:S:1:pos:R:3:initial_magmoms:R:1 pbc="T T T"
Si      -0.94364712      -2.13617286       0.22863473       0.00000000
Si      -0.40913964       2.08331181       1.06376590       0.00000000
Si      -1.26903987       0.23188815      -2.07495100       0.00000000
Si       2.12628483      -0.66691260       1.73932007       0.00000000
Si       2.27520801       2.02859370      -1.75600469       0.00000000
Si      -1.69585416      -1.80462249       2.50843967       0.00000000
Si       0.49350555       1.05322995      -3.37046701       0.00000000
Si       1.71595602       3.17676177       0.73786189       0.00000000
Si       0.81290358      -3.74870367       0.16788470       0.00000000
Si      -1.27226529       1.80791307       3.29777467       0.00000000
