10
Lattice="16.28999089631971 0.0 0.0 0.0 16.28999089631971 0.0 0.0 0.0 34.61538196595647" Properties=species:S:1:pos:R:3:initial_magmoms:R:1 pbc="T T T"
Si      -1.26675927       1.33936380       1.52545227       0.00000000
Si       0.94750785       1.78412967      -1.29939090       0.00000000
Si      -1.01797839      -1.90549017      -1.16906391       0.00000000
Si       1.45122723      -1.33938009       1.55216844       0.00000000
Si       2.71474479      -2.62998792       0.11427582       0.00000000
Si       2.74675464       2.68837128       0.15445738       0.00000000
Si      -2.77128738       2.67514380       0.01656347       0.00000000
Si       0.79475652      -3.58179633      -1.28519858       0.00000000
Si      -2.59222770      -0.01231524       2.91297256       0.00000000
Si      -0.93781530       3.62937942      -1.11950431       0.00000000
