10
Lattice="16.28999089631971 0.0 0.0 0.0 16.28999089631971 0.0 0.0 0.0 34.61538196595647" Properties=species:S:1:pos:R:3:initial_magmoms:R:1 pbc="T T T"
Si      -1.16659206      -1.35676152      -1.46350455       0.00000000
Si       0.31842063       2.13343614      -0.85309657       0.00000000
Si      -0.94415211       0.14105511       2.14092796       0.00000000
Si       2.02365783      -1.08768330       0.49022331       0.00000000
Si       3.42091629       0.68134554      -0.05628464       0.00000000
Si      -3.28434093      -0.37147716      -1.22597367       0.00000000
Si       2.20571487       2.72381832       0.44415021       0.00000000
Si       1.75884759      -2.99362959      -0.86735811       0.00000000
Si      -0.38646396      -2.02761630       2.93542065       0.00000000
Si      -0.53696727      -3.48469164      -0.70414649       0.00000000
