10
Lattice="16.28999089631971 0.0 0.0 0.0 16.28999089631971 0.0 0.0 0.0 34.61538196595647" Properties=species:S:1:pos:R:3:initial_magmoms:R:1 pbc="T T T"
Si       1.36192545       1.36459701      -1.34837719       0.00000000
Si      -1.35905841       1.35602847       1.36350066       0.00000000
Si       1.35762489      -1.35896067       1.36325835       0.00000000
Si      -1.38678399      -1.36089918      -1.38506259       0.00000000
Si       2.62672992      -0.01189170      -2.75605748       0.00000000
Si      -2.71225242      -2.71257822       0.00245769       0.00000000
Si      -2.71505430       2.71379997       0.00107308       0.00000000
Si       2.71492398       2.71423980       0.00678462       0.00000000
Si       2.71275741      -2.71818198       0.00370385       0.00000000
Si       2.71414206      -0.00053757       2.72011285       0.00000000
