10
Lattice="16.28999089631971 0.0 0.0 0.0 16.28999089631971 0.0 0.0 0.0 34.61538196595647" Properties=species:S:1:pos:R:3:initial_magmoms:R:1 pbc="T T T"
Si      -2.23878357      -0.66953529       0.09401543       0.00000000
Si       1.04519898      -1.48626702       1.63363925       0.00000000
Si       0.37483290       2.36585276       0.50853486       0.00000000
Si       0.21652668      -0.36103527      -2.41646655       0.00000000
Si      -2.02509135      -2.78936928      -0.94711200       0.00000000
Si       3.26181186      -1.36207206       0.78459269       0.00000000
Si       1.43692461       1.59991162      -2.98305144       0.00000000
Si      -1.41169140       2.91223565       2.05428561       0.00000000
Si      -3.55229514       0.40012542      -1.55000844       0.00000000
Si       0.97129125      -0.32770593       3.76823259       0.00000000
