10
Lattice="16.28999089631971 0.0 0.0 0.0 16.28999089631971 0.0 0.0 0.0 34.61538196595647" Properties=species:S:1:pos:R:3:initial_magmoms:R:1 pbc="T T T"
Si      -0.14076189       0.01257588       2.32695112       0.00000000
Si      -0.04010598       2.02942449      -1.18561211       0.00000000
Si       1.48852711      -1.18970757      -1.37841990       0.00000000
Si      -2.14211871      -0.97658550      -0.42722328       0.00000000
Si      -0.38714814       0.96200595      -3.26997850       0.00000000
Si      -0.01699047      -1.33713207      -3.21251693       0.00000000
Si      -2.17160361       2.70912474      -0.56762335       0.00000000
Si      -1.03456161      -2.15476138       2.65358205       0.00000000
Si      -3.32167761       0.81705753      -1.31929679       0.00000000
Si      -1.90211814      -2.48047015      -2.21569722       0.00000000
