10
Lattice="16.28999089631971 0.0 0.0 0.0 16.28999089631971 0.0 0.0 0.0 34.61538196595647" Properties=species:S:1:pos:R:3:initial_magmoms:R:1 pbc="T T T"
Si       0.14076189      -0.01257588      -2.32695112       0.00000000
Si       2.05867386      -0.19016946       1.11558515       0.00000000
Si      -0.89379972      -2.16733726       0.32663093       0.00000000
Si      -1.79714538       1.53736875       0.71048111       0.00000000
Si      -2.98851453      -1.67282173      -0.67437725       0.00000000
Si      -2.00135682      -0.98916138      -2.75417441       0.00000000
Si      -0.61732584      -2.34628291       2.66123205       0.00000000
Si       1.75497287      -2.10971953       2.49971659       0.00000000
Si      -1.72126656       3.37799214      -0.72446573       0.00000000
Si      -3.84430968       0.23076414       0.59157721       0.00000000
