10
Lattice="16.28999089631971 0.0 0.0 0.0 16.28999089631971 0.0 0.0 0.0 34.61538196595647" Properties=species:S:1:pos:R:3:initial_magmoms:R:1 pbc="T T T"
Si      -1.57488462      -1.14113731       1.24527664       0.00000000
Si      -0.80780481       0.95548995      -2.01856251       0.00000000
Si       1.15709499       1.60335954       1.35822669       0.00000000
Si       0.73741572      -2.04333452      -1.52695458       0.00000000
Si       1.13280660       2.52737721      -1.59223923       0.00000000
Si      -0.18282267      -2.36511971       2.74774083       0.00000000
Si      -0.86051925      -0.95449300      -3.42855165       0.00000000
Si       2.54278755      -2.68854137       0.07559281       0.00000000
Si       2.54392785       0.35075628       2.74914967       0.00000000
Si      -2.80841229      -2.58772256      -0.14451930       0.00000000
