10
Lattice="16.28999089631971 0.0 0.0 0.0 16.28999089631971 0.0 0.0 0.0 34.61538196595647" Properties=species:S:1:pos:R:3:initial_magmoms:R:1 pbc="T T T"
Si      -0.83797389      -1.99189233       1.22130059       0.00000000
Si       0.86568318       1.97916984       1.28173908       0.00000000
Si      -1.40335092       1.27351962      -1.66046619       0.00000000
Si       1.31082372      -1.41219639      -1.65814695       0.00000000
Si      -2.65149072      -2.74058073      -0.24874627       0.00000000
Si       2.65357584       2.74206312      -0.24864243       0.00000000
Si       2.60192025      -2.84801328      -0.24296550       0.00000000
Si      -2.62358595       2.82934494      -0.31482707       0.00000000
Si      -0.04600296       2.64306879      -3.04778224       0.00000000
Si       2.66455530      -0.07164342      -3.04767839       0.00000000
