10
Lattice="16.28999089631971 0.0 0.0 0.0 16.28999089631971 0.0 0.0 0.0 34.61538196595647" Properties=species:S:1:pos:R:3:initial_magmoms:R:1 pbc="T T T"
Si      -1.35686432      -1.35653346      -1.35668142       0.00000000
Si       1.35853876       1.35770634      -1.35612758       0.00000000
Si       1.36026550      -1.35303111       1.36173527       0.00000000
Si      -1.35991105       1.35765747       1.36190835       0.00000000
Si      -2.71336570      -2.71404921       0.00100385       0.00000000
Si      -2.71437568       0.00102627      -2.71374362       0.00000000
Si       0.00048870      -2.71430170      -2.71391669       0.00000000
Si       2.69650162       0.00047241       2.73274747       0.00000000
Si       0.00047404       2.71598283      -2.71363977       0.00000000
Si       2.71587043       0.00096111      -2.71377823       0.00000000
