10
Lattice="16.28999089631971 0.0 0.0 0.0 16.28999089631971 0.0 0.0 0.0 34.61538196595647" Properties=species:S:1:pos:R:3:initial_magmoms:R:1 pbc="T T T"
Si      -2.13149763       0.67970025       0.61798876       0.00000000
Si       0.04010598      -2.02942449       1.18561211       0.00000000
Si      -0.34704216      -1.06741854      -2.08436639       0.00000000
Si       1.38446985       1.70549784       0.89785428       0.00000000
Si      -3.28157163      -1.21236696      -0.13368468       0.00000000
Si       1.52863309      -3.21913206      -0.19280779       0.00000000
Si      -1.82192247       1.36114353       2.78809750       0.00000000
Si      -2.65455324      -0.77802669      -2.37935884       0.00000000
Si      -2.10201273      -3.00600999       0.75838883       0.00000000
Si       0.36369054       2.22599592       3.00392453       0.00000000
