10
Lattice="16.28999089631971 0.0 0.0 0.0 16.28999089631971 0.0 0.0 0.0 34.61538196595647" Properties=species:S:1:pos:R:3:initial_magmoms:R:1 pbc="T T T"
Si       1.39725846       1.76902884      -0.54650796       0.00000000
Si      -2.02365783       1.08768330      -0.49022331       0.00000000
Si      -0.26481024      -1.90594629      -1.35758142       0.00000000
Si      -0.12729006      -0.84233961       2.21223568       0.00000000
Si       1.62741987       1.16554950      -2.86428600       0.00000000
Si      -2.41012179      -0.93993300       2.44519733       0.00000000
Si      -2.96780994       1.22873841       1.65070464       0.00000000
Si       0.53623422      -3.63882762      -0.09488081       0.00000000
Si      -2.56062510      -2.39700834      -1.19436981       0.00000000
Si       0.84580938      -2.95738434       2.07522792       0.00000000
