10
Lattice="16.28999089631971 0.0 0.0 0.0 16.28999089631971 0.0 0.0 0.0 34.61538196595647" Properties=species:S:1:pos:R:3:initial_magmoms:R:1 pbc="T T T"
Si      -0.13517442      -0.91813698       2.12445102       0.00000000
Si      -2.12190282       0.55361565      -0.80702347       0.00000000
Si       1.40743875       1.89490167       0.00529616       0.00000000
Si       0.86967490      -1.76495634      -1.30693909       0.00000000
Si       3.05172692      -0.77015862      -1.53765074       0.00000000
Si      -1.89174141      -0.04986369      -3.12480151       0.00000000
Si       2.68865540       1.52554221      -1.99052404       0.00000000
Si      -3.51916128      -1.21541319      -0.26051551       0.00000000
Si      -0.21144420      -1.70372223      -3.46157475       0.00000000
Si       0.53304042      -3.82844322      -0.07553081       0.00000000
