10
Lattice="16.28999089631971 0.0 0.0 0.0 16.28999089631971 0.0 0.0 0.0 34.61538196595647" Properties=species:S:1:pos:R:3:initial_magmoms:R:1 pbc="T T T"
Si       0.13517442       0.91813698      -2.12445102       0.00000000
Si       2.10730276      -0.28259892       0.98622740       0.00000000
Si      -1.04576913       1.49504733       1.54966229       0.00000000
Si      -0.35256447      -2.38980816      -0.09391158       0.00000000
Si      -2.88279243       0.07195293       1.74323161       0.00000000
Si       1.30866271      -1.14378606       3.02026300       0.00000000
Si       0.04585635       0.87726537       3.56652864       0.00000000
Si       1.00484932      -0.84681936      -3.43139012       0.00000000
Si      -3.51127692      -1.13961582      -0.17273085       0.00000000
Si       0.66821484      -2.91030624      -2.19998183       0.00000000
