10
Lattice="16.28999089631971 0.0 0.0 0.0 16.28999089631971 0.0 0.0 0.0 34.61538196595647" Properties=species:S:1:pos:R:3:initial_magmoms:R:1 pbc="T T T"
Si      -1.35730740       1.35576783       1.35578142       0.00000000
Si       1.35813802       1.35622395      -1.35758142       0.00000000
Si      -1.35641034      -1.35892809      -1.35726989       0.00000000
Si       1.35639500      -1.35855342       1.36225450       0.00000000
Si      -2.71290306       2.71254564      -0.00006923       0.00000000
Si       2.71336829       2.71293660       0.00062308       0.00000000
Si      -0.00355937       2.70505224       2.72132439       0.00000000
Si       0.00127551       2.71321353      -2.71453977       0.00000000
Si      -2.71270758      -2.71538010       0.00090000       0.00000000
Si      -2.71417368      -0.00130320      -2.71464362       0.00000000
