10
Lattice="16.28999089631971 0.0 0.0 0.0 16.28999089631971 0.0 0.0 0.0 34.61538196595647" Properties=species:S:1:pos:R:3:initial_magmoms:R:1 pbc="T T T"
Si      -1.11009575      -1.56142908      -1.38548144       0.00000000
Si       0.00757485      -0.10437003       2.36617037       0.00000000
Si       1.62299876       1.12358646      -1.37745066       0.00000000
Si       2.11857314      -1.47668850       2.06193561       0.00000000
Si      -2.89798841      -2.32432236       0.14490007       0.00000000
Si       0.25701710       2.40456690      -2.82444367       0.00000000
Si      -2.45398817      -0.28496097      -2.82343982       0.00000000
Si       2.63376068       1.86541677       2.00810866       0.00000000
Si       0.44960563       2.10779568       3.16907461       0.00000000
Si       2.26726826       3.12582294      -0.20163471       0.00000000
