10
Lattice="16.28999089631971 0.0 0.0 0.0 16.28999089631971 0.0 0.0 0.0 34.61538196595647" Properties=species:S:1:pos:R:3:initial_magmoms:R:1 pbc="T T T"
Si      -2.10730276       0.28259892      -0.98622740       0.00000000
Si      -0.79864006      -0.86118714       2.03403560       0.00000000
Si       1.00391523       2.12463954       0.41078097       0.00000000
Si       1.49701353      -1.30161987      -1.33999680       0.00000000
Si       2.42347470       1.18226304       2.09122024       0.00000000
Si      -2.45986723      -2.10720924      -1.08013898       0.00000000
Si      -2.06144641       1.15986429       2.58030124       0.00000000
Si      -1.78508656      -2.82408327       1.14531978       0.00000000
Si       2.30551881       0.57956562      -2.63800512       0.00000000
Si      -3.15307189       1.77764625       0.56343489       0.00000000
