10
Lattice="16.28999089631971 0.0 0.0 0.0 16.28999089631971 0.0 0.0 0.0 34.61538196595647" Properties=species:S:1:pos:R:3:initial_magmoms:R:1 pbc="T T T"
Si       1.35708895       1.35755223      -1.35688912       0.00000000
Si      -1.35810759      -1.35752715      -1.35706219       0.00000000
Si       1.35791974      -1.35597960       1.35962373       0.00000000
Si      -1.35732601       1.35630540       1.36170066       0.00000000
Si       2.70052525       0.00961110       2.72173977       0.00000000
Si       2.71187938      -2.71546155       0.00114231       0.00000000
Si       2.71450207      -0.00027693      -2.71381285       0.00000000
Si       2.71424143       2.71413947       0.00062308       0.00000000
Si      -0.00078192       2.71498329      -2.71405516       0.00000000
Si      -0.00021340      -2.71518462      -2.71402054       0.00000000
