10
Lattice="16.28999089631971 0.0 0.0 0.0 16.28999089631971 0.0 0.0 0.0 34.61538196595647" Properties=species:S:1:pos:R:3:initial_magmoms:R:1 pbc="T T T"
Si      -1.07169141      -1.62269577       1.39884298       0.00000000
Si       1.84358817       0.88002231       1.28076985       0.00000000
Si      -1.23461910       1.47170932      -1.48607379       0.00000000
Si       1.46857608      -1.22476365      -1.50923150       0.00000000
Si       0.77325372      -3.23646462       1.11368131       0.00000000
Si       2.74069476      -2.52573192      -0.03035771       0.00000000
Si      -2.64472127      -2.67198354      -0.05019233       0.00000000
Si       2.68954416       2.71178720      -0.11592698       0.00000000
Si      -2.65576589       2.77619786      -0.06448849       0.00000000
Si      -2.58927518       0.12193065      -2.86927061       0.00000000
