10
Lattice="16.28999089631971 0.0 0.0 0.0 16.28999089631971 0.0 0.0 0.0 34.61538196595647" Properties=species:S:1:pos:R:3:initial_magmoms:R:1 pbc="T T T"
Si      -0.33117570      -2.41940709       0.04458464       0.00000000
Si      -0.69766812      -1.15900092      -2.16515874       0.00000000
Si       2.82325248       0.67645854       0.27910398       0.00000000
Si      -2.54261325       0.45476793      -1.87999706       0.00000000
Si      -0.10248039      -0.24653286       3.22501309       0.00000000
Si       2.28095838       1.37797110      -1.93102016       0.00000000
Si       0.69634863      -2.53830780       2.23560108       0.00000000
Si      -2.51533075      -2.17702818       1.20555058       0.00000000
Si       1.26977292      -0.44826822      -3.30919775       0.00000000
Si       0.37266633       2.95748601      -1.99807019       0.00000000
