10
Lattice="10.86 0.0 0.0 0.0 10.86 0.0 0.0 0.0 10.86" Properties=species:S:1:pos:R:3:initial_magmoms:R:1 pbc="T T T"
Si       1.52010678      -1.17195690       1.28833266       0.00000000
Si      -1.30865172      -1.50592362      -1.17108810       0.00000000
Si      -1.22295546       1.24142832       1.53662484       0.00000000
Si       1.57645932       1.12604082      -1.33359714       0.00000000
Si      -2.54462832      -0.12036138      -2.56464330       0.00000000
Si      -2.54462832       2.59463862       0.15035670       0.00000000
Si       0.17037168       2.59463862      -2.56464330       0.00000000
Si      -2.54462832      -2.83536138       0.15035670       0.00000000
Si       0.17037168      -2.83536138      -2.56464330       0.00000000
Si      -2.54462832      -0.12036138       2.86535670       0.00000000
