10
Lattice="10.86 0.0 0.0 0.0 10.86 0.0 0.0 0.0 10.86" Properties=species:S:1:pos:R:3:initial_magmoms:R:1 pbc="T T T"
Si       1.46487282       1.21103118       1.38307530       0.00000000
Si      -1.25012718      -1.50396882       1.38307530       0.00000000
Si       1.46487282      -1.50396882      -1.33192470       0.00000000
Si      -1.82938872      -0.45908478      -1.64525742       0.00000000
Si      -2.62510092       2.61518574       0.42106392       0.00000000
Si       0.10737282       2.56853118       2.74057530       0.00000000
Si       2.88821700       2.40109170       0.24366582       0.00000000
Si      -2.60762718      -0.14646882       2.74057530       0.00000000
Si       2.73271266      -0.26666730      -2.67036540       0.00000000
Si      -2.60762718      -2.86146882       0.02557530       0.00000000
