10
Lattice="10.86 0.0 0.0 0.0 10.86 0.0 0.0 0.0 10.86" Properties=species:S:1:pos:R:3:initial_magmoms:R:1 pbc="T T T"
Si       1.22625690       1.27361736       1.38214134       0.00000000
Si      -1.48874310       1.27361736      -1.33285866       0.00000000
Si      -1.48874310      -1.44138264       1.38214134       0.00000000
Si       1.68036780      -1.89420120      -1.51771758       0.00000000
Si       2.58375690       2.63111736       0.02464134       0.00000000
Si      -0.13124310       2.63111736      -2.69035866       0.00000000
Si       2.55051444       0.01293426      -2.78390670       0.00000000
Si      -0.13124310       2.63111736       2.73964134       0.00000000
Si       2.55228462       0.03370944       2.87912718       0.00000000
Si      -2.84624310       2.63111736       0.02464134       0.00000000
