10
Lattice="10.86 0.0 0.0 0.0 10.86 0.0 0.0 0.0 10.86" Properties=species:S:1:pos:R:3:initial_magmoms:R:1 pbc="T T T"
Si      -1.42334418      -1.19006052       1.13940948       0.00000000
Si       1.29165582       1.52493948       1.13940948       0.00000000
Si       1.29165582      -1.19006052      -1.57559052       0.00000000
Si      -0.06584418      -2.54756052       2.49690948       0.00000000
Si       2.64915582       0.16743948       2.49690948       0.00000000
Si       2.64915582      -2.54756052      -0.21809052       0.00000000
Si      -2.78084418       0.16743948       2.49690948       0.00000000
Si      -2.88821700      -2.40109170      -0.24366582       0.00000000
Si      -0.06584418       2.88243948       2.49690948       0.00000000
Si       0.00806898       2.62967298      -2.82079812       0.00000000
