10
Lattice="10.86 0.0 0.0 0.0 10.86 0.0 0.0 0.0 10.86" Properties=species:S:1:pos:R:3:initial_magmoms:R:1 pbc="T T T"
Si       1.28358684      -1.10473350      -1.46979240       0.00000000
Si       1.28358684       1.61026650       1.24520760       0.00000000
Si      -1.43141316       1.61026650      -1.46979240       0.00000000
Si       2.64108684      -2.46223350      -0.11229240       0.00000000
Si       2.64108684       0.25276650       2.60270760       0.00000000
Si      -0.00806898      -2.62967298       2.82079812       0.00000000
Si       2.64108684       0.25276650      -2.82729240       0.00000000
Si      -0.07391316       2.96776650       2.60270760       0.00000000
Si       0.46436274      -1.86740958      -3.44961384       0.00000000
Si      -2.82038544       0.37035858       2.74219344       0.00000000
