10
Lattice="16.28999089631971 0.0 0.0 0.0 16.28999089631971 0.0 0.0 0.0 34.51530692428229" Properties=species:S:1:pos:R:3:initial_magmoms:R:1 pbc="T T T"
Si      -1.32364115       1.38033152       1.38505517       0.00000000
Si       1.40651118      -1.33091811       1.35703908       0.00000000
Si      -0.84911951      -1.82580831      -1.34297896       0.00000000
Si       0.67093623       1.94484518      -1.49574379       0.00000000
Si      -0.82360937       0.06114614      -2.76055792       0.00000000
Si       2.60121978       2.68424828      -0.07139495       0.00000000
Si      -2.59510193       2.73673466      -0.02694612       0.00000000
Si      -2.65185629      -2.74730103      -0.14582725       0.00000000
Si       0.03577936      -2.66953257       2.74030291       0.00000000
Si      -2.67907688       0.04322714       2.74606697       0.00000000
