10
Lattice="16.28999089631971 0.0 0.0 0.0 16.28999089631971 0.0 0.0 0.0 34.51530692428229" Properties=species:S:1:pos:R:3:initial_magmoms:R:1 pbc="T T T"
Si       1.22246676      -1.50205203       1.34312940       0.00000000
Si       1.36818081       1.33880994      -1.37695442       0.00000000
Si      -1.34978940      -1.37722176      -1.37840407       0.00000000
Si      -1.22367222       1.51259166       1.59730027       0.00000000
Si      -1.76309928      -0.61437735       2.38863315       0.00000000
Si      -2.70511088       2.69568549       0.01121748       0.00000000
Si       2.70912474       2.70311373       0.02126144       0.00000000
Si       0.00785178       2.69553888      -2.73502896       0.00000000
Si      -2.70646621      -0.01977606      -2.73692731       0.00000000
Si      -2.70082010      -2.74294115      -0.01232197       0.00000000
