10
Lattice="16.28999089631971 0.0 0.0 0.0 16.28999089631971 0.0 0.0 0.0 34.51530692428229" Properties=species:S:1:pos:R:3:initial_magmoms:R:1 pbc="T T T"
Si      -0.20792556      -0.95301387       2.13121785       0.00000000
Si       1.48494753       1.81209960       0.62679832       0.00000000
Si       0.82767861      -1.79641233      -1.46603848       0.00000000
Si      -2.10539616       0.98790705      -0.82398438       0.00000000
Si      -2.52703512      -1.31373963       2.26140966       0.00000000
Si      -3.52719944      -0.92333349       0.09564197       0.00000000
Si       0.50880186      -0.77002830      -3.53661290       0.00000000
Si       0.96598071      -3.00390858       2.18350857       0.00000000
Si      -2.59186606       2.73751821       0.72582279       0.00000000
Si       0.74674989       0.35025129       3.83251279       0.00000000
