10
Lattice="16.28999089631971 0.0 0.0 0.0 16.28999089631971 0.0 0.0 0.0 34.51530692428229" Properties=species:S:1:pos:R:3:initial_magmoms:R:1 pbc="T T T"
Si       1.43006326       1.68260617      -0.67415335       0.00000000
Si       0.45109942      -1.65848490      -1.65045387       0.00000000
Si      -2.31744213       0.42656994      -0.41142269       0.00000000
Si       0.55206484      -0.26433783       2.34255519       0.00000000
Si       1.02061411      -3.50134002      -0.39986005       0.00000000
Si      -0.76813866      -2.00410983       3.01743336       0.00000000
Si       3.63480073       0.73353870      -0.16567357       0.00000000
Si       0.65832451       3.61694105       0.59676999       0.00000000
Si      -3.44420514      -1.48960647       0.28789234       0.00000000
Si      -2.55928347      -0.00408879      -2.78897642       0.00000000
