10
Lattice="16.28999089631971 0.0 0.0 0.0 16.28999089631971 0.0 0.0 0.0 34.51530692428229" Properties=species:S:1:pos:R:3:initial_magmoms:R:1 pbc="T T T"
Si      -1.32020350      -1.73977200       0.67487817       0.00000000
Si      -0.87130323       1.79267119       1.30944245       0.00000000
Si       2.21566806      -0.63441405       0.72364833       0.00000000
Si      -0.55206484       0.26433783      -2.34255519       0.00000000
Si      -0.65135076      -3.49154973      -0.68837367       0.00000000
Si       3.46170645       1.17165825      -0.16477617       0.00000000
Si       0.39104145       3.61544237       0.62817894       0.00000000
Si       0.87799842       1.94694400      -3.01670854       0.00000000
Si      -0.98347780      -2.24459910       2.98367737       0.00000000
Si      -3.59312507      -1.55251845       0.24723328       0.00000000
