10
Lattice="16.28999089631971 0.0 0.0 0.0 16.28999089631971 0.0 0.0 0.0 34.51530692428229" Properties=species:S:1:pos:R:3:initial_magmoms:R:1 pbc="T T T"
Si       1.32020350       1.73977200      -0.67487817       0.00000000
Si       0.66885274      -1.75177773      -1.36325184       0.00000000
Si      -2.27292156       0.18725355      -0.42764489       0.00000000
Si       0.33672570      -0.50482710       2.30879920       0.00000000
Si      -2.78718057      -2.10948984      -0.45663777       0.00000000
Si       0.44890027       3.53244319       0.63456427       0.00000000
Si       0.76813866       2.00410983      -3.01743336       0.00000000
Si       3.53587156       1.10535795       0.04877016       0.00000000
Si      -3.06689616       1.94663871       1.00653594       0.00000000
Si       2.52616849      -2.80438866      -0.47406801       0.00000000
