10
Lattice="16.28999089631971 0.0 0.0 0.0 16.28999089631971 0.0 0.0 0.0 34.51530692428229" Properties=species:S:1:pos:R:3:initial_magmoms:R:1 pbc="T T T"
Si       1.83264129       0.85246222      -1.29893395       0.00000000
Si      -1.22199435       1.46959258       1.45955305       0.00000000
Si       1.48581090      -1.26760879       1.45665722       0.00000000
Si      -1.90737981      -1.02156871      -1.28033019       0.00000000
Si      -2.56585419       0.10939061       2.84212657       0.00000000
Si       2.79148698       2.66355184       0.08575678       0.00000000
Si       0.14612130      -2.60182318       2.84799418       0.00000000
Si      -2.71863810       2.75269072       0.03122256       0.00000000
Si       3.67979697      -0.65131330      -1.04189275       0.00000000
Si      -2.61434952      -2.88015412      -0.09500344       0.00000000
