10
Lattice="16.28999089631971 0.0 0.0 0.0 16.28999089631971 0.0 0.0 0.0 34.51530692428229" Properties=species:S:1:pos:R:3:initial_magmoms:R:1 pbc="T T T"
Si       0.53942706       2.12696901      -0.79133288       0.00000000
Si      -2.10375087      -0.64314549      -1.00090994       0.00000000
Si       1.44831132      -2.05430421       0.45077016       0.00000000
Si       1.76309928       0.61437735      -2.38863315       0.00000000
Si       2.98556604      -0.88767468      -1.04550375       0.00000000
Si      -0.93772082      -2.12856380      -2.40095512       0.00000000
Si       0.24316083      -3.60597788      -0.91279232       0.00000000
Si       0.41330988      -0.76284441      -3.76703722       0.00000000
Si       1.73996748       3.54548592       0.99310948       0.00000000
Si      -3.33054656      -2.43721206       0.31709230       0.00000000
