10
Lattice="16.28999089631971 0.0 0.0 0.0 16.28999089631971 0.0 0.0 0.0 34.51530692428229" Properties=species:S:1:pos:R:3:initial_magmoms:R:1 pbc="T T T"
Si      -1.52381547      -1.27963393       1.19802697       0.00000000
Si      -0.66145545       2.11833694       0.70469942       0.00000000
Si      -0.46678995      -0.04909317      -2.35480813       0.00000000
Si       2.22824394      -0.86425777       0.65265030       0.00000000
Si      -0.00659745       3.16899307      -1.29135641       0.00000000
Si       0.85006107       2.20991932       2.49901316       0.00000000
Si       2.76128532      -1.60520587      -1.54601049       0.00000000
Si      -0.77361210      -3.48499042       0.61457990       0.00000000
Si       1.72700064      -0.32368067      -3.17786060       0.00000000
Si      -3.72855294      -0.33056645       0.68954719       0.00000000
