10
Lattice="16.28999089631971 0.0 0.0 0.0 16.28999089631971 0.0 0.0 0.0 34.51530692428229" Properties=species:S:1:pos:R:3:initial_magmoms:R:1 pbc="T T T"
Si       0.66145545      -2.11833694      -0.70469942       0.00000000
Si       1.51151652       0.09158238       1.79431375       0.00000000
Si       0.65485800       1.05065613      -1.99605583       0.00000000
Si      -2.13105780       1.02711708       0.61178416       0.00000000
Si       2.37856806       2.12620338       1.12161004       0.00000000
Si      -0.06792930       0.70890822       3.38091426       0.00000000
Si      -0.86236002      -3.39797087       0.49332756       0.00000000
Si      -0.62584551       0.01568727      -3.62421280       0.00000000
Si       0.19466550      -2.16743011      -3.05950755       0.00000000
Si      -1.54388475       2.33204382       2.54215732       0.00000000
