10
Lattice="16.28999089631971 0.0 0.0 0.0 16.28999089631971 0.0 0.0 0.0 34.51530692428229" Properties=species:S:1:pos:R:3:initial_magmoms:R:1 pbc="T T T"
Si       1.57944582      -0.61732584      -1.58660052       0.00000000
Si       1.62414558       0.76245345       1.49485878       0.00000000
Si      -1.47595545       1.62313560      -0.83875694       0.00000000
Si      -1.19606067      -1.97161128       0.52473650       0.00000000
Si       0.06792930      -0.70890822      -3.38091426       0.00000000
Si      -2.06312850       0.31820886      -2.76913011       0.00000000
Si       2.68988625      -1.21303485       2.04758721       0.00000000
Si       2.97896859      -2.02561263      -0.16660548       0.00000000
Si       2.44649736       1.41729516      -2.25930422       0.00000000
Si      -2.79270873       2.12781609       1.06089758       0.00000000
