10
Lattice="16.28999089631971 0.0 0.0 0.0 16.28999089631971 0.0 0.0 0.0 34.51530692428229" Properties=species:S:1:pos:R:3:initial_magmoms:R:1 pbc="T T T"
Si       2.21703642      -0.26558890       0.66003658       0.00000000
Si      -0.48568635       0.43107575      -2.27224747       0.00000000
Si      -1.43371548      -1.45254413       1.19781988       0.00000000
Si       0.30214692       1.90499495       1.50655947       0.00000000
Si      -2.10093759       2.36432408       1.34882443       0.00000000
Si      -0.67818528      -3.54212759      -0.05053044       0.00000000
Si       3.40026057       1.18965218      -0.74939676       0.00000000
Si       0.29491416      -1.53041033      -3.34111809       0.00000000
Si       0.71037432       2.40268703      -2.79698398       0.00000000
Si      -0.53638083      -1.07331878       3.56474289       0.00000000
