10
Lattice="16.28999089631971 0.0 0.0 0.0 16.28999089631971 0.0 0.0 0.0 34.51530692428229" Properties=species:S:1:pos:R:3:initial_magmoms:R:1 pbc="T T T"
Si      -0.48500217       2.26349550       0.34794900       0.00000000
Si      -1.65693735      -1.53575604      -0.72116323       0.00000000
Si       1.00361061      -0.41697513       2.15209962       0.00000000
Si       1.91767509       0.28007397      -2.05148744       0.00000000
Si       1.66539186      -3.05300664      -0.30987860       0.00000000
Si      -3.26166525      -1.03408920       1.15909368       0.00000000
Si       1.60436952       3.04109865       1.13286204       0.00000000
Si       2.50698213      -2.11295961       1.65369831       0.00000000
Si      -0.55934973      -3.71680785       0.19249197       0.00000000
Si      -0.24918813       3.27433887      -1.85105694       0.00000000
