10
Lattice="16.28999089631971 0.0 0.0 0.0 16.28999089631971 0.0 0.0 0.0 34.51530692428229" Properties=species:S:1:pos:R:3:initial_magmoms:R:1 pbc="T T T"
Si       1.35627282       1.35588186       1.35721166       0.00000000
Si      -1.35749457       1.35757602      -1.35769487       0.00000000
Si       1.35759231      -1.35770634      -1.35800551       0.00000000
Si      -1.35811359      -1.35878148       1.35800551       0.00000000
Si      -0.00107514       2.71419093      -2.71400913       0.00000000
Si       2.71420722       0.00081450      -2.71504459       0.00000000
Si      -2.71572219      -0.00060273      -2.71366398       0.00000000
Si      -2.71482624       2.71497285      -0.00069031       0.00000000
Si       2.71529865      -2.71495656      -0.00027612       0.00000000
Si       2.71508688       2.71524978      -0.00020709       0.00000000
