10
Lattice="16.28999089631971 0.0 0.0 0.0 16.28999089631971 0.0 0.0 0.0 34.51530692428229" Properties=species:S:1:pos:R:3:initial_magmoms:R:1 pbc="T T T"
Si      -1.22652297      -1.39603671       1.45319878       0.00000000
Si       1.96408530       0.83039904       1.10528429       0.00000000
Si       1.32887304      -1.35891180      -1.48302002       0.00000000
Si      -1.37746611       1.35871632      -1.47974107       0.00000000
Si      -2.00800314       0.16812909       3.17471971       0.00000000
Si       2.72569167       2.67685425      -0.15314450       0.00000000
Si       2.65557951      -2.77620696      -0.00900850       0.00000000
Si      -2.78632305      -2.67921630       0.14358376       0.00000000
Si      -2.81963610       2.68273494      -0.06136825       0.00000000
Si       2.69648370       0.00581553      -2.86715363       0.00000000
