10
Lattice="16.28999089631971 0.0 0.0 0.0 16.28999089631971 0.0 0.0 0.0 34.51530692428229" Properties=species:S:1:pos:R:3:initial_magmoms:R:1 pbc="T T T"
Si      -1.06119576      -1.90614177       0.79423217       0.00000000
Si      -0.07806168      -1.03247649      -2.10757485       0.00000000
Si       1.99234845      -0.77871087       1.01123003       0.00000000
Si      -0.75020337       2.20535649       0.58344707       0.00000000
Si      -0.01130526      -3.15126792      -0.98026978       0.00000000
Si      -2.17758204      -0.06094089      -2.49918574       0.00000000
Si       0.77361210       3.48499042      -0.61457990       0.00000000
Si       2.93842278       1.11439890       1.88222428       0.00000000
Si      -1.00167210      -1.67677857       3.10734579       0.00000000
Si      -0.37123281       2.37913821       2.92689966       0.00000000
