10
Lattice="16.28999089631971 0.0 0.0 0.0 16.28999089631971 0.0 0.0 0.0 34.51530692428229" Properties=species:S:1:pos:R:3:initial_magmoms:R:1 pbc="T T T"
Si      -1.33705062       1.28371716      -1.52530130       0.00000000
Si       0.86400531       1.78631253       1.37491802       0.00000000
Si      -1.91008395      -1.00085760       1.17735229       0.00000000
Si       1.38007251      -1.43583155      -1.50638690       0.00000000
Si       2.66095521       2.63521701      -0.01863828       0.00000000
Si      -2.79570609       2.53905714      -0.04466283       0.00000000
Si       0.02441871       2.63875194      -2.90415406       0.00000000
Si       1.36192545       0.78363045       3.61126955       0.00000000
Si      -2.68438023      -0.07646526      -2.90080608       0.00000000
Si      -2.70725139      -2.90757671       0.03465339       0.00000000
