10
Lattice="16.28999089631971 0.0 0.0 0.0 16.28999089631971 0.0 0.0 0.0 34.51530692428229" Properties=species:S:1:pos:R:3:initial_magmoms:R:1 pbc="T T T"
Si      -0.05264928       1.65011184      -1.65873755       0.00000000
Si      -2.26211085       0.05571180       0.65575668       0.00000000
Si       0.93890673      -1.60055766      -1.49137273       0.00000000
Si       1.03314438       0.80510067       1.99132723       0.00000000
Si      -2.75164164       2.33419410       0.62431322       0.00000000
Si      -0.52851276      -3.43696194      -1.23074750       0.00000000
Si       2.12162589       2.45648313      -1.84743284       0.00000000
Si      -0.89423955       0.71006481      -3.62231446       0.00000000
Si      -3.54281436      -0.97925706      -0.97240029       0.00000000
Si       3.18534660      -1.95010848      -0.72071453       0.00000000
