10
Lattice="16.28999089631971 0.0 0.0 0.0 16.28999089631971 0.0 0.0 0.0 34.51530692428229" Properties=species:S:1:pos:R:3:initial_magmoms:R:1 pbc="T T T"
Si       1.35741312       1.35698958       1.35645232       0.00000000
Si       1.35742941      -1.35744570      -1.35738423       0.00000000
Si      -1.35770634       1.35725022      -1.35772939       0.00000000
Si      -1.35845568      -1.35780408       1.35710811       0.00000000
Si       2.71213839      -0.00008145       2.71538974       0.00000000
Si       2.71428867      -2.71472850       0.00041418       0.00000000
Si      -2.71308321      -0.00055386       2.71635617       0.00000000
Si       2.71466334       2.71485882       0.00003452       0.00000000
Si       2.71578735      -0.00081450      -2.71414719       0.00000000
Si      -2.71529865       2.71495656       0.00027612       0.00000000
