10
Lattice="16.28999089631971 0.0 0.0 0.0 16.28999089631971 0.0 0.0 0.0 34.51530692428229" Properties=species:S:1:pos:R:3:initial_magmoms:R:1 pbc="T T T"
Si      -0.72130491      -0.87135210       2.00675558       0.00000000
Si       2.24837838       0.46740897       0.35036508       0.00000000
Si      -1.39290903       1.69184682      -0.87078717       0.00000000
Si       2.15966304       1.54712646      -1.79027546       0.00000000
Si       1.18600974      -1.99503630       2.83153382       0.00000000
Si      -0.91766457       0.94651416       3.45505318       0.00000000
Si       0.01037673       2.32583733      -2.95137103       0.00000000
Si      -2.10979935      -0.91759941      -3.06119880       0.00000000
Si       2.14246080      -3.06467028       0.86709403       0.00000000
Si       0.38649654      -3.74011884      -0.83658248       0.00000000
