10
Lattice="16.28999089631971 0.0 0.0 0.0 16.28999089631971 0.0 0.0 0.0 34.51530692428229" Properties=species:S:1:pos:R:3:initial_magmoms:R:1 pbc="T T T"
Si      -1.35661491      -1.35852084       1.35703908       0.00000000
Si       1.35866745       1.35695700       1.35741875       0.00000000
Si      -1.35746199       1.35990549      -1.36004191       0.00000000
Si       1.36005210      -1.35943308      -1.36307926       0.00000000
Si      -0.00162900       2.70249471      -2.71582809       0.00000000
Si      -2.71528236       2.71337643       0.00103546       0.00000000
Si      -2.71420722      -0.00081450       2.71504459       0.00000000
Si       0.00087966       2.71443528       2.71483750       0.00000000
Si       0.00109143      -2.71577106       2.71476847       0.00000000
Si       2.71575477      -0.00091224       2.71480298       0.00000000
