10
Lattice="16.28999089631971 0.0 0.0 0.0 16.28999089631971 0.0 0.0 0.0 34.51530692428229" Properties=species:S:1:pos:R:3:initial_magmoms:R:1 pbc="T T T"
Si       1.35426915      -1.35809730      -1.36218186       0.00000000
Si      -1.36216980       1.35575154      -1.36114640       0.00000000
Si       1.34513046       1.35236322       1.38171754       0.00000000
Si      -1.37528325      -1.35133695       1.39593785       0.00000000
Si       2.70899442      -2.71516833      -0.00324444       0.00000000
Si       2.71274112       2.71709055      -0.00241607       0.00000000
Si       2.71151937      -0.00022806      -2.71859967       0.00000000
Si      -2.71614573       2.71422351       0.00055225       0.00000000
Si      -2.71622718      -2.71564074      -0.00227801       0.00000000
Si      -0.00335574       2.71511946      -2.71856515       0.00000000
