10
Lattice="16.28999089631971 0.0 0.0 0.0 16.28999089631971 0.0 0.0 0.0 34.51530692428229" Properties=species:S:1:pos:R:3:initial_magmoms:R:1 pbc="T T T"
Si      -1.34513046      -1.35236322      -1.38171754       0.00000000
Si       1.36761066       1.36472733      -1.38413361       0.00000000
Si      -1.32887304       1.35891180       1.48302002       0.00000000
Si       1.32670647      -1.41729516       1.47401152       0.00000000
Si       0.63521226       2.18931084       2.58830431       0.00000000
Si       2.32525089       0.14330313       3.01567308       0.00000000
Si      -2.70633915       2.71762812       0.00327896       0.00000000
Si      -2.72041371      -2.70370017       0.01422031       0.00000000
Si       2.72634327      -2.70404226      -0.00438345       0.00000000
Si       2.72849355       2.70650205      -0.03247892       0.00000000
