10
Lattice="16.28999089631971 0.0 0.0 0.0 16.28999089631971 0.0 0.0 0.0 34.51530692428229" Properties=species:S:1:pos:R:3:initial_magmoms:R:1 pbc="T T T"
Si      -0.99854442      -1.56059829      -1.54166156       0.00000000
Si       2.14928631      -0.77871087       1.16109557       0.00000000
Si       1.65783330       1.12282083      -1.61859622       0.00000000
Si      -1.40328576      -0.63399051       2.08058386       0.00000000
Si      -1.69003863       2.04600771      -0.42736877       0.00000000
Si      -0.01037673      -2.32583733       2.95137103       0.00000000
Si      -2.32525089      -0.14330313      -3.01567308       0.00000000
Si      -2.12017608      -3.24343674      -0.10982777       0.00000000
Si       2.76444558       2.77270461      -0.35423079       0.00000000
Si       0.40324266       2.56319892      -3.04815200       0.00000000
