10
Lattice="16.28999089631971 0.0 0.0 0.0 16.28999089631971 0.0 0.0 0.0 34.51530692428229" Properties=species:S:1:pos:R:3:initial_magmoms:R:1 pbc="T T T"
Si       0.14125059      -1.77380181       1.60158017       0.00000000
Si       0.32711949      -1.14855903      -2.07692524       0.00000000
Si      -2.42445699       0.39882807      -0.00141513       0.00000000
Si       2.01295530       1.48006053       0.13070954       0.00000000
Si       1.08872586       0.69789618      -3.33535403       0.00000000
Si       2.14770618      -1.36119240       2.77475610       0.00000000
Si      -1.36402686       3.04766352       1.82510142       0.00000000
Si       2.98302480       1.43311275      -2.03706004       0.00000000
Si       3.62110410      -0.01817964       1.44436286       0.00000000
Si       0.61387236      -3.82855725       0.43102739       0.00000000
