10
Lattice="16.28999089631971 0.0 0.0 0.0 16.28999089631971 0.0 0.0 0.0 34.51530692428229" Properties=species:S:1:pos:R:3:initial_magmoms:R:1 pbc="T T T"
Si      -1.35689043      -1.35762489       1.35721166       0.00000000
Si       1.35845776       1.35663120       1.35724617       0.00000000
Si       1.35951824      -1.35495333      -1.36028352       0.00000000
Si      -1.35951312       1.35804843      -1.35772939       0.00000000
Si      -2.71462935       2.71282257       0.00048321       0.00000000
Si      -2.71401033      -0.00048870       2.71483750       0.00000000
Si       2.71511176       2.71388142       0.00120804       0.00000000
Si       0.00057449       2.71471221       2.71438880       0.00000000
Si      -2.71422210      -2.71565703       0.00013806       0.00000000
Si       0.00088676      -2.71565703       2.71445783       0.00000000
