10
Lattice="16.28999089631971 0.0 0.0 0.0 16.28999089631971 0.0 0.0 0.0 34.51530692428229" Properties=species:S:1:pos:R:3:initial_magmoms:R:1 pbc="T T T"
Si       1.35665401       1.35725022      -1.35603814       0.00000000
Si      -1.35845776      -1.35663120      -1.35724617       0.00000000
Si       1.35737077      -1.35757602       1.35762584       0.00000000
Si      -1.35788327       1.35808101       1.35714263       0.00000000
Si      -2.71415902       0.00211770       2.71431977       0.00000000
Si       2.71432777      -2.71441899       0.00013806       0.00000000
Si       0.00106048      -2.71158453      -2.71752969       0.00000000
Si      -2.71534819      -2.71425609      -0.00003452       0.00000000
Si       2.71426261      -0.00092853       2.71563135       0.00000000
Si      -0.00005539      -2.71624347       2.71373301       0.00000000
