10
Lattice="16.28999089631971 0.0 0.0 0.0 16.28999089631971 0.0 0.0 0.0 34.51530692428229" Properties=species:S:1:pos:R:3:initial_magmoms:R:1 pbc="T T T"
Si       1.35808101      -1.35567009      -1.36066319       0.00000000
Si      -1.35814617       1.35782037      -1.36028352       0.00000000
Si      -1.35545832      -1.35148356       1.37833504       0.00000000
Si       1.36290285       1.34667801       1.38006080       0.00000000
Si      -0.09871740       2.61868266       2.77979534       0.00000000
Si       2.71311579      -2.71500543       0.00127707       0.00000000
Si      -2.71419093       2.71728603      -0.00141513       0.00000000
Si       2.71011037       2.72197755       0.00024161       0.00000000
Si       2.71435676       0.00029322      -2.71784033       0.00000000
Si      -0.00022806      -2.71490769      -2.71739163       0.00000000
