10
Lattice="16.28999089631971 0.0 0.0 0.0 16.28999089631971 0.0 0.0 0.0 34.51530692428229" Properties=species:S:1:pos:R:3:initial_magmoms:R:1 pbc="T T T"
Si      -2.24837838      -0.46740897      -0.35036508       0.00000000
Si       0.51945552       1.03985586       2.03523073       0.00000000
Si      -0.08871534       1.07971749      -2.14064053       0.00000000
Si       1.41773499      -1.92388158      -0.62686735       0.00000000
Si       0.32355198      -0.80396037       3.40697334       0.00000000
Si      -0.10591758      -3.53207925       0.51672895       0.00000000
Si       0.75461796      -0.92651004      -3.38046556       0.00000000
Si      -1.06236864      -2.46244527       2.48116874       0.00000000
Si      -2.96968329      -1.33876107       1.65639050       0.00000000
Si      -1.44212112       2.06418735       2.73634055       0.00000000
