10
Lattice="16.28999089631971 0.0 0.0 0.0 16.28999089631971 0.0 0.0 0.0 34.51530692428229" Properties=species:S:1:pos:R:3:initial_magmoms:R:1 pbc="T T T"
Si      -1.36360332      -1.35136953       1.39253809       0.00000000
Si       1.35532800       1.36269108       1.39122651       0.00000000
Si      -1.50118866       1.23623181      -1.41285381       0.00000000
Si       1.41675759      -1.30355838      -1.60796205       0.00000000
Si       2.69061930      -2.71158453       0.01565270       0.00000000
Si      -2.71321353      -2.70902700       0.02597969       0.00000000
Si       2.71725710       2.70910845       0.00429371       0.00000000
Si      -2.71790505       2.72007162       0.01666055       0.00000000
Si       2.70903515       0.00474039       2.75306322       0.00000000
Si      -0.00509877      -2.71059084       2.75399514       0.00000000
