10
Lattice="16.28999089631971 0.0 0.0 0.0 16.28999089631971 0.0 0.0 0.0 34.51530692428229" Properties=species:S:1:pos:R:3:initial_magmoms:R:1 pbc="T T T"
Si       1.35649274       1.35619137      -1.35728069       0.00000000
Si       1.35756266      -1.35725022       1.35755681       0.00000000
Si      -1.35742941       1.35772263       1.35766036       0.00000000
Si      -1.35764118      -1.35913986      -1.35634877       0.00000000
Si       0.00128691      -2.71321353       2.71473395       0.00000000
Si      -0.00114030       2.71459818       2.71387107       0.00000000
Si      -0.00252495      -2.71391400      -2.71456138       0.00000000
Si      -2.71469592      -2.71494027       0.00010355       0.00000000
Si      -2.71495656       2.71505430       0.00072482       0.00000000
Si      -2.71494027       0.00027693       2.71511362       0.00000000
