10
Lattice="16.28999089631971 0.0 0.0 0.0 16.28999089631971 0.0 0.0 0.0 34.51530692428229" Properties=species:S:1:pos:R:3:initial_magmoms:R:1 pbc="T T T"
Si      -2.06161353      -0.53628309      -0.92086890       0.00000000
Si       1.49434686       1.09993338      -1.40480829       0.00000000
Si       0.65619378      -2.20371120       0.42270920       0.00000000
Si      -0.39135096       1.71294237       1.68876588       0.00000000
Si      -3.34396233      -0.09163125       0.95493553       0.00000000
Si       0.49357071       3.19846005      -1.38810287       0.00000000
Si       1.23217560      -2.05219791       2.68218600       0.00000000
Si      -2.71858923       2.13930054       1.54328378       0.00000000
Si       0.73541205       3.62911878       0.98945086       0.00000000
Si       3.50395361       1.54406394      -0.24958032       0.00000000
