10
Lattice="16.28999089631971 0.0 0.0 0.0 16.28999089631971 0.0 0.0 0.0 34.51530692428229" Properties=species:S:1:pos:R:3:initial_magmoms:R:1 pbc="T T T"
Si       1.34135118       1.36842746       1.37987442       0.00000000
Si      -1.37477826      -1.34991972       1.37545646       0.00000000
Si      -1.32766758       1.46504834      -1.35053639       0.00000000
Si       1.36857177      -1.42210071      -1.51201980       0.00000000
Si      -0.34536429      -2.54492154      -2.63747209       0.00000000
Si       2.69678691       2.70553184       0.01886263       0.00000000
Si       2.70593555      -2.71684620      -0.01368533       0.00000000
Si       2.69842165       0.01041545       2.73539483       0.00000000
Si      -2.72922660      -2.70588303      -0.00131849       0.00000000
Si      -0.01619226      -2.70443322       2.73539483       0.00000000
