10
Lattice="16.28999089631971 0.0 0.0 0.0 16.28999089631971 0.0 0.0 0.0 34.51530692428229" Properties=species:S:1:pos:R:3:initial_magmoms:R:1 pbc="T T T"
Si      -0.58896495       2.06614215       0.87679283       0.00000000
Si      -1.47339792      -1.34301276       1.33039325       0.00000000
Si       2.35208052      -0.47286612       0.03727655       0.00000000
Si      -1.60814880       1.49824017      -1.31365332       0.00000000
Si       2.21842107      -2.00801943      -1.84715671       0.00000000
Si      -1.69823250       0.06753834       3.19877689       0.00000000
Si       1.16049960      -0.40368249      -3.44815012       0.00000000
Si      -0.31185576       1.96806006       3.22017639       0.00000000
Si       0.96168015       3.65993036       0.18679695       0.00000000
Si      -0.63807930       1.45129239      -3.48142289       0.00000000
