10
Lattice="16.28999089631971 0.0 0.0 0.0 16.28999089631971 0.0 0.0 0.0 34.51530692428229" Properties=species:S:1:pos:R:3:initial_magmoms:R:1 pbc="T T T"
Si      -1.00077615       2.09852667       0.01670542       0.00000000
Si      -1.49434686      -1.09993338       1.40480829       0.00000000
Si       0.49214438      -1.09413414      -2.01372768       0.00000000
Si       2.00960675       0.44413056       1.15522797       0.00000000
Si      -0.75893481       2.52918540       2.39425915       0.00000000
Si       0.60653276       3.31443233      -1.17524686       0.00000000
Si       2.81125394      -0.73340838      -2.14391949       0.00000000
Si      -1.88569782       0.61300899       3.09357417       0.00000000
Si      -3.17195622       1.73719818      -0.99659553       0.00000000
Si       2.57912144      -1.39872456       2.40582178       0.00000000
