10
Lattice="16.28999089631971 0.0 0.0 0.0 16.28999089631971 0.0 0.0 0.0 34.51530692428229" Properties=species:S:1:pos:R:3:initial_magmoms:R:1 pbc="T T T"
Si       2.31989215      -0.10000431       0.47796824       0.00000000
Si      -0.24413823       0.57995658      -2.29126542       0.00000000
Si      -1.06106544       1.72589292       1.25363116       0.00000000
Si      -1.24059753      -1.85885190       0.82743592       0.00000000
Si      -1.00489752      -0.77827104       2.88007345       0.00000000
Si       0.30962403       3.65838281       0.73241522       0.00000000
Si       3.15948364      -1.87150923      -0.98900216       0.00000000
Si      -3.55892517      -1.34172585       0.43154512       0.00000000
Si      -2.50242093       1.20391245      -2.64090567       0.00000000
Si      -3.71571642       0.81546111      -0.65275385       0.00000000
