10
Lattice="16.28999089631971 0.0 0.0 0.0 16.28999089631971 0.0 0.0 0.0 34.51530692428229" Properties=species:S:1:pos:R:3:initial_magmoms:R:1 pbc="T T T"
Si      -0.75532006      -1.87835103       1.27035108       0.00000000
Si      -0.58332861      -1.21310001      -1.98040386       0.00000000
Si      -1.66237332       1.79512542      -0.37054001       0.00000000
Si       2.03251959       0.85126653       1.15477996       0.00000000
Si      -2.11834250      -0.51971616       2.61801925       0.00000000
Si       1.20106170      -2.70700704      -1.79509107       0.00000000
Si       0.62683920       2.19501234       2.61724610       0.00000000
Si      -3.39220421       0.88830999       0.99440450       0.00000000
Si      -0.66041941       3.49625754       1.06261023       0.00000000
Si      -0.59102075       0.13703148      -3.88337186       0.00000000
