10
Lattice="16.28999089631971 0.0 0.0 0.0 16.28999089631971 0.0 0.0 0.0 34.51530692428229" Properties=species:S:1:pos:R:3:initial_magmoms:R:1 pbc="T T T"
Si       1.35753529       1.35669636      -1.35855776       0.00000000
Si      -1.35789793      -1.35804843      -1.35835066       0.00000000
Si       1.35789367      -1.36024758       1.36114640       0.00000000
Si      -1.36214432       1.36363590       1.35973128       0.00000000
Si       2.71372667       2.71422351      -0.00044870       0.00000000
Si      -2.71417368      -2.71401174      -0.00117352       0.00000000
Si       0.00007493       2.71451673      -2.71580393       0.00000000
Si      -2.71660089       2.71379997      -0.00203640       0.00000000
Si       2.71486696      -0.00070047      -2.71556232       0.00000000
Si       2.71424795      -2.71705797       0.00013806       0.00000000
