10
Lattice="16.28999089631971 0.0 0.0 0.0 16.28999089631971 0.0 0.0 0.0 34.51530692428229" Properties=species:S:1:pos:R:3:initial_magmoms:R:1 pbc="T T T"
Si      -1.35445657       1.35016407      -1.36176768       0.00000000
Si       1.36214432      -1.36363590      -1.35973128       0.00000000
Si       1.35111599       1.35936792       1.37557381       0.00000000
Si      -1.34720752      -1.37529954       1.37981920       0.00000000
Si       2.63500420      -0.10772577       2.69592310       0.00000000
Si      -2.70809041       2.70549207      -0.00276123       0.00000000
Si       0.00414233       2.70837540      -2.71763324       0.00000000
Si       2.71927237       2.70839169       0.00148416       0.00000000
Si      -2.71074568      -0.00671148      -2.71797839       0.00000000
Si      -2.71011037      -2.72197755      -0.00024161       0.00000000
