10
Lattice="16.28999089631971 0.0 0.0 0.0 16.28999089631971 0.0 0.0 0.0 34.281931910070035" Properties=species:S:1:pos:R:3:initial_magmoms:R:1 pbc="T T T"
Si       1.36332639       1.35358052       1.38974230       0.00000000
Si      -1.35189407      -1.36355631       1.39118214       0.00000000
Si       1.41665985      -1.33390851      -1.43428141       0.00000000
Si      -1.34557192       1.35154916      -1.51640040       0.00000000
Si       2.71125873      -2.70352284       0.04439513       0.00000000
Si      -2.71354652       2.70649109       0.00296882       0.00000000
Si      -2.71076093      -2.71199364      -0.00930755       0.00000000
Si       2.72678310       2.71468496       0.00136099       0.00000000
Si      -2.70959620      -0.00448553       2.75131855       0.00000000
Si       0.00532683       2.70997715       2.75145568       0.00000000
