10
Lattice="16.28999089631971 0.0 0.0 0.0 16.28999089631971 0.0 0.0 0.0 34.281931910070035" Properties=species:S:1:pos:R:3:initial_magmoms:R:1 pbc="T T T"
Si       1.35741312      -1.35723596      -1.35667393       0.00000000
Si      -1.35783666      -1.35562325       1.35787380       0.00000000
Si      -1.35769005       1.35807151      -1.35677678       0.00000000
Si       1.35827649       1.35719999       1.35831947       0.00000000
Si      -2.71305063       0.00015974      -2.71437632       0.00000000
Si       0.00210141       2.71465221      -2.71293648       0.00000000
Si       0.00153126      -2.71332959      -2.71513052       0.00000000
Si       2.71523349       0.00167953      -2.71331358       0.00000000
Si      -2.71466334       2.71499430       0.00030854       0.00000000
Si      -2.71461447      -2.71505633       0.00010285       0.00000000
