10
Lattice="16.28999089631971 0.0 0.0 0.0 16.28999089631971 0.0 0.0 0.0 34.281931910070035" Properties=species:S:1:pos:R:3:initial_magmoms:R:1 pbc="T T T"
Si      -1.86372261      -0.33521562       1.35235441       0.00000000
Si       0.22830435      -1.91157937      -1.36942682       0.00000000
Si       2.01616443      -0.28049751       1.19966260       0.00000000
Si      -0.32969331       2.09965068      -1.19695432       0.00000000
Si      -1.17107181      -1.04965429      -2.99706529       0.00000000
Si       1.91128941       2.76229530      -0.66321863       0.00000000
Si       3.32076537       0.79614117      -0.39924760       0.00000000
Si      -1.45642374       1.14433992       3.05009947       0.00000000
Si      -3.11336109      -0.22926546      -1.76541763       0.00000000
Si      -1.77621273      -2.58449714       1.94471224       0.00000000
