10
Lattice="16.28999089631971 0.0 0.0 0.0 16.28999089631971 0.0 0.0 0.0 34.281931910070035" Properties=species:S:1:pos:R:3:initial_magmoms:R:1 pbc="T T T"
Si       1.95810687      -1.26878967      -0.29917859       0.00000000
Si      -1.04545962      -0.69637536       2.01043074       0.00000000
Si       0.43947162       2.27839759       0.50946407       0.00000000
Si      -1.55517372      -0.39398409      -1.82558246       0.00000000
Si      -1.64268360       1.85529742      -2.41794029       0.00000000
Si      -1.23538473       3.33485296      -0.72019523       0.00000000
Si       0.97852401      -3.45094920      -0.78197130       0.00000000
Si       3.04606710      -0.32107005      -2.20978028       0.00000000
Si      -1.78455321      -2.90950218       1.71701152       0.00000000
Si       2.23720344       1.91001553      -2.57063210       0.00000000
