10
Lattice="16.28999089631971 0.0 0.0 0.0 16.28999089631971 0.0 0.0 0.0 34.281931910070035" Properties=species:S:1:pos:R:3:initial_magmoms:R:1 pbc="T T T"
Si      -1.35645201       1.35664749       1.35897082       0.00000000
Si      -1.34949618      -1.35422028      -1.36874803       0.00000000
Si       1.35762489      -1.36057338       1.35811377       0.00000000
Si       1.35917244       1.34908893      -1.39340704       0.00000000
Si       0.14607243      -2.52486855      -2.81057833       0.00000000
Si      -0.15537402       2.68001451      -2.73531917       0.00000000
Si       2.71402803       2.71337643      -0.00462806       0.00000000
Si       0.00034209       2.71252935       2.71629611       0.00000000
Si      -2.71748803       2.71150308       0.00521086       0.00000000
Si      -2.71420885      -0.00221544       2.71595329       0.00000000
