10
Lattice="16.28999089631971 0.0 0.0 0.0 16.28999089631971 0.0 0.0 0.0 34.281931910070035" Properties=species:S:1:pos:R:3:initial_magmoms:R:1 pbc="T T T"
Si       2.33898336      -0.50617917      -0.31964491       0.00000000
Si      -0.21926340       1.51876557       1.93881574       0.00000000
Si      -0.72482355      -2.33700250       0.74796361       0.00000000
Si       1.07458614      -1.24569630      -2.90717801       0.00000000
Si       2.89531944      -0.19706013       1.98543920       0.00000000
Si       0.03095100      -3.51854945      -1.15660447       0.00000000
Si       2.29120479      -2.75276402      -1.31937517       0.00000000
Si      -1.94763566       1.64802672      -2.86641677       0.00000000
Si       2.01756537       1.80186948       2.88801440       0.00000000
Si      -1.68544322       0.76597209       3.59456542       0.00000000
