10
Lattice="16.28999089631971 0.0 0.0 0.0 16.28999089631971 0.0 0.0 0.0 34.281931910070035" Properties=species:S:1:pos:R:3:initial_magmoms:R:1 pbc="T T T"
Si      -1.77468147       0.39043872      -1.55389800       0.00000000
Si      -0.91305450       1.42877961       1.68972309       0.00000000
Si       1.09649619      -2.13094377       0.45022486       0.00000000
Si      -3.05020476       0.98290602       0.73555354       0.00000000
Si      -0.17391204       1.68917526      -3.02346239       0.00000000
Si       1.55115009       2.71135647      -1.63970572       0.00000000
Si       0.12468366       0.41870187       3.55037598       0.00000000
Si       1.92609702      -2.87318133      -1.65088164       0.00000000
Si       3.45189987       1.07867493      -1.65146443       0.00000000
Si       3.03386589      -1.78880490       2.00923087       0.00000000
