10
Lattice="16.28999089631971 0.0 0.0 0.0 16.28999089631971 0.0 0.0 0.0 34.281931910070035" Properties=species:S:1:pos:R:3:initial_magmoms:R:1 pbc="T T T"
Si      -0.98448615       0.38086020      -2.06092805       0.00000000
Si      -0.81901233       1.17965664       1.82976486       0.00000000
Si       2.17372131       0.63737883      -0.69770627       0.00000000
Si      -0.64513287      -2.07018207       0.97165334       0.00000000
Si       0.48159756      -1.11487131      -3.27540045       0.00000000
Si       0.47742732       0.20588931       3.50982043       0.00000000
Si       3.40105878      -0.03114648       1.13223000       0.00000000
Si      -3.20951444      -0.20738799      -1.62640432       0.00000000
Si      -0.53921529       3.43841175       1.37690028       0.00000000
Si      -1.05243174      -3.54973761      -0.72609172       0.00000000
