10
Lattice="16.28999089631971 0.0 0.0 0.0 16.28999089631971 0.0 0.0 0.0 34.281931910070035" Properties=species:S:1:pos:R:3:initial_magmoms:R:1 pbc="T T T"
Si       1.78414596      -1.01986803       1.02719010       0.00000000
Si      -2.04599861      -0.83458557       0.71536147       0.00000000
Si       0.53450748      -0.91391787      -2.09058194       0.00000000
Si      -0.37293674       2.32248159       0.12687750       0.00000000
Si      -0.82459817       0.62548713      -3.16340132       0.00000000
Si      -0.65358738      -2.91573733      -1.65732664       0.00000000
Si       1.85209155       2.91072978      -0.30764623       0.00000000
Si      -1.63446855       2.46018096      -1.86281266       0.00000000
Si       2.19144483       0.45968751       2.72493516       0.00000000
Si      -1.74205309      -0.25814763       3.07961623       0.00000000
