10
Lattice="16.28999089631971 0.0 0.0 0.0 16.28999089631971 0.0 0.0 0.0 34.281931910070035" Properties=species:S:1:pos:R:3:initial_magmoms:R:1 pbc="T T T"
Si      -0.41998878      -0.77121747       2.18982819       0.00000000
Si       2.02593843      -1.12109409      -0.51128102       0.00000000
Si       0.02625948       2.38031109      -0.02615713       0.00000000
Si      -1.37976300      -1.01895579      -1.65938356       0.00000000
Si      -2.48624496       0.20300598       2.55647366       0.00000000
Si       0.72822816       2.97663912      -2.12640658       0.00000000
Si       1.21008636       0.25713765       3.55257003       0.00000000
Si       2.70923877      -0.45800964      -2.68365969       0.00000000
Si      -3.53535354      -0.15864831      -1.52739805       0.00000000
Si      -1.65956004      -3.27771090      -1.20651899       0.00000000
