10
Lattice="16.28999089631971 0.0 0.0 0.0 16.28999089631971 0.0 0.0 0.0 34.281931910070035" Properties=species:S:1:pos:R:3:initial_magmoms:R:1 pbc="T T T"
Si      -0.81557514      -1.90936719      -1.15324895       0.00000000
Si       1.29459888      -1.36961433       1.47867654       0.00000000
Si       1.85334588       0.81858879      -1.28646591       0.00000000
Si      -1.41665985       1.33390851       1.43428141       0.00000000
Si       2.66986584      -2.69817786       0.19192065       0.00000000
Si       3.50873568      -1.01320542      -1.17343759       0.00000000
Si      -2.76223177       2.68545767      -0.08211899       0.00000000
Si       2.74962168       2.70596841      -0.05065844       0.00000000
Si      -2.67985324      -2.80207548       0.04174170       0.00000000
Si       2.65772979      -0.02845863       2.82745191       0.00000000
