10
Lattice="16.28999089631971 0.0 0.0 0.0 16.28999089631971 0.0 0.0 0.0 34.281931910070035" Properties=species:S:1:pos:R:3:initial_magmoms:R:1 pbc="T T T"
Si      -1.35666378      -1.35943308      -1.35605686       0.00000000
Si      -1.35733167       1.35702250       1.35794236       0.00000000
Si       1.35742941      -1.35757602       1.35742813       0.00000000
Si       1.35899325       1.35764004      -1.35705103       0.00000000
Si       2.71096551      -0.00014661      -2.71537050       0.00000000
Si       0.00052128      -2.71290402       2.71495911       0.00000000
Si       2.71445157      -2.71440270       0.00017141       0.00000000
Si       2.71420722       0.00185706       2.71519909       0.00000000
Si      -2.71379345      -0.00001629       2.71574760       0.00000000
Si       2.71435383       2.71555182       0.00054851       0.00000000
