10
Lattice="16.28999089631971 0.0 0.0 0.0 16.28999089631971 0.0 0.0 0.0 34.281931910070035" Properties=species:S:1:pos:R:3:initial_magmoms:R:1 pbc="T T T"
Si       1.35783666       1.35562325      -1.35787380       0.00000000
Si      -1.35865116       1.35664400       1.35763383       0.00000000
Si      -1.35677781      -1.35943308      -1.35777095       0.00000000
Si       1.35681039      -1.36262592       1.36164481       0.00000000
Si      -2.70798444       0.00114030       2.70306328       0.00000000
Si      -2.71339272       2.71329402       0.00020569       0.00000000
Si       0.00014661       2.71369476      -2.71465058       0.00000000
Si      -2.71368594      -2.71476108      -0.00023997       0.00000000
Si       2.71611315       2.71282324       0.00044567       0.00000000
Si      -2.71420722      -0.00185706      -2.71519909       0.00000000
