10
Lattice="16.28999089631971 0.0 0.0 0.0 16.28999089631971 0.0 0.0 0.0 34.281931910070035" Properties=species:S:1:pos:R:3:initial_magmoms:R:1 pbc="T T T"
Si       1.35739683       1.35666378      -1.35753098       0.00000000
Si      -1.35733167      -1.35822762      -1.35773667       0.00000000
Si      -1.35982404       1.35599589       1.35890226       0.00000000
Si       1.36093176      -1.35767376       1.35989643       0.00000000
Si      -2.71402803       2.71332756       0.00167982       0.00000000
Si       0.00027693       2.71422351      -2.71475342       0.00000000
Si      -0.00014661      -2.71509991      -2.71468486       0.00000000
Si       2.71559187       2.71430496      -0.00071992       0.00000000
Si      -2.71552671      -0.00094482      -2.71447917       0.00000000
Si       2.71432125      -2.71580853      -0.00020569       0.00000000
