10
Lattice="16.28999089631971 0.0 0.0 0.0 16.28999089631971 0.0 0.0 0.0 34.281931910070035" Properties=species:S:1:pos:R:3:initial_magmoms:R:1 pbc="T T T"
Si       0.35363961       2.27773296       0.26174270       0.00000000
Si       1.44780633      -1.30422627      -1.33391072       0.00000000
Si       0.15897411      -1.06969914       2.15887159       0.00000000
Si      -2.07282105      -0.00131949      -1.30943340       0.00000000
Si      -0.26692794      -3.13617996       1.17569951       0.00000000
Si      -3.37742199      -1.07795817       0.28947679       0.00000000
Si      -0.18524988       3.25361799      -1.87943940       0.00000000
Si       0.48710358      -1.39132890      -3.46405403       0.00000000
Si      -0.50124330       2.79656946       2.49836575       0.00000000
Si       1.35027810      -3.53985677      -0.55811016       0.00000000
