10
Lattice="16.28999089631971 0.0 0.0 0.0 16.28999089631971 0.0 0.0 0.0 34.281931910070035" Properties=species:S:1:pos:R:3:initial_magmoms:R:1 pbc="T T T"
Si       1.28168091      -1.38538305       1.44769937       0.00000000
Si       1.83624138       0.84545100      -1.32079585       0.00000000
Si      -1.38896685      -1.25087652      -1.53399531       0.00000000
Si      -1.41604083       1.35294966       1.42542981       0.00000000
Si       3.29825259      -1.04094729      -1.10929469       0.00000000
Si       0.23657967      -2.62490707      -2.61538517       0.00000000
Si       2.66370822       2.68382637      -0.08816632       0.00000000
Si      -2.69612532      -2.70684740      -0.06174522       0.00000000
Si       2.52822429      -2.88809808       0.06476203       0.00000000
Si      -2.62097955       2.81629665      -0.10238990       0.00000000
