10
Lattice="16.28999089631971 0.0 0.0 0.0 16.28999089631971 0.0 0.0 0.0 34.281931910070035" Properties=species:S:1:pos:R:3:initial_magmoms:R:1 pbc="T T T"
Si      -1.35573525      -1.35707103       1.35674250       0.00000000
Si      -1.35702216       1.35669636      -1.35783952       0.00000000
Si       1.35769005      -1.35842310      -1.35742813       0.00000000
Si       1.35918873       1.35584928       1.35873085       0.00000000
Si      -2.71463076       2.71437012      -0.00027426       0.00000000
Si       2.71502172       2.71409319      -0.00013713       0.00000000
Si       0.00114030       2.71508688      -2.71410207       0.00000000
Si       2.71339272      -0.00148239       2.71595329       0.00000000
Si       0.00249237      -2.71596654      -2.71348499       0.00000000
Si      -0.00558747      -2.71283886       2.71674178       0.00000000
