10
Lattice="16.28999089631971 0.0 0.0 0.0 16.28999089631971 0.0 0.0 0.0 34.281931910070035" Properties=species:S:1:pos:R:3:initial_magmoms:R:1 pbc="T T T"
Si       1.35646830      -1.35668007      -1.35934792       0.00000000
Si      -1.35839052       1.36018242      -1.35951933       0.00000000
Si       1.35003375       1.38911346       1.36274184       0.00000000
Si      -1.36969578      -1.36055709       1.38824761       0.00000000
Si       2.71067229      -2.71401174      -0.00212548       0.00000000
Si       2.70998811       2.71469592      -0.00202264       0.00000000
Si      -2.71700910      -2.71179630      -0.00209120       0.00000000
Si       2.71230129       0.00156384      -2.71821590       0.00000000
Si      -0.00272043      -2.71252935      -2.71807877       0.00000000
Si      -0.00203625       2.71666701      -2.71756454       0.00000000
