10
Lattice="16.28999089631971 0.0 0.0 0.0 16.28999089631971 0.0 0.0 0.0 34.281931910070035" Properties=species:S:1:pos:R:3:initial_magmoms:R:1 pbc="T T T"
Si       2.24373573      -0.82613106      -0.28227759       0.00000000
Si      -0.62766999      -2.11773258       0.98118372       0.00000000
Si      -0.49231638       2.02403250       1.27264887       0.00000000
Si      -1.93736970      -0.34213887      -1.55900601       0.00000000
Si      -0.17863614      -3.53429795      -0.96915076       0.00000000
Si      -2.98141209      -1.96828812       1.10799266       0.00000000
Si       2.05772022      -3.07006227      -0.99798188       0.00000000
Si      -2.90918223       2.20750677       1.54114511       0.00000000
Si      -1.10776887      -1.08437643      -3.66011251       0.00000000
Si       3.44232135      -1.05420735       1.72393647       0.00000000
