10
Lattice="16.28999089631971 0.0 0.0 0.0 16.28999089631971 0.0 0.0 0.0 34.281931910070035" Properties=species:S:1:pos:R:3:initial_magmoms:R:1 pbc="T T T"
Si      -1.14847758      -1.62166950       1.28238494       0.00000000
Si      -0.46237536      -0.04453686      -2.33710345       0.00000000
Si       2.14856955      -0.33288615       0.97634997       0.00000000
Si      -1.01944449       2.07537858       0.59671164       0.00000000
Si      -2.87924121       0.13893741      -2.06860721       0.00000000
Si      -3.13181766       1.79465301      -0.36777677       0.00000000
Si       2.60856657       1.80978642       1.81838325       0.00000000
Si       0.69182001       1.98259074      -3.07008585       0.00000000
Si      -1.64688642       1.79727570       2.82925514       0.00000000
Si      -1.69733655      -0.53206398       3.32634343       0.00000000
