10
Lattice="16.28999089631971 0.0 0.0 0.0 16.28999089631971 0.0 0.0 0.0 34.281931910070035" Properties=species:S:1:pos:R:3:initial_magmoms:R:1 pbc="T T T"
Si      -0.12872358      -2.14852068       0.86061410       0.00000000
Si      -1.69749945       0.26091693      -1.57868385       0.00000000
Si       2.27278080       0.28572660      -0.65800777       0.00000000
Si      -0.65533041       0.32793399       2.76182254       0.00000000
Si       0.80668080      -1.55846430       2.97332371       0.00000000
Si       1.19079900      -3.34134616      -0.60480218       0.00000000
Si      -3.41285274       1.23887079      -0.23068325       0.00000000
Si       2.63598264       2.70891297      -0.10329152       0.00000000
Si       2.46013209      -0.68201343      -2.87327316       0.00000000
Si       3.67544754      -0.62537310       0.99712483       0.00000000
