10
Lattice="16.28999089631971 0.0 0.0 0.0 16.28999089631971 0.0 0.0 0.0 34.281931910070035" Properties=species:S:1:pos:R:3:initial_magmoms:R:1 pbc="T T T"
Si      -1.35563751      -1.35685926       1.35650252       0.00000000
Si      -1.35756136       1.35728280      -1.35797665       0.00000000
Si       1.35905841       1.35829278       1.35547406       0.00000000
Si       1.35790182      -1.35803214      -1.35753098       0.00000000
Si      -2.71449199       2.71453302       0.00003428       0.00000000
Si       2.71489140       2.71446786       0.00000000       0.00000000
Si       2.71427238      -0.00107514      -2.71581616       0.00000000
Si      -0.00107514       2.71484253       2.71554191       0.00000000
Si      -2.71521133      -2.71521720       0.00030854       0.00000000
Si      -0.00022806      -2.71580364      -2.71468486       0.00000000
