10
Lattice="16.28999089631971 0.0 0.0 0.0 16.28999089631971 0.0 0.0 0.0 34.281931910070035" Properties=species:S:1:pos:R:3:initial_magmoms:R:1 pbc="T T T"
Si       1.40048388      -1.13041197      -1.46630761       0.00000000
Si       0.56032713       2.20506327       0.52338255       0.00000000
Si      -2.04164199      -0.60848037      -0.95663784       0.00000000
Si       0.08592975      -0.95641848       2.18890258       0.00000000
Si       0.34836165      -3.24177516      -1.22009464       0.00000000
Si      -1.93839597      -2.94723567      -0.77782319       0.00000000
Si      -1.13697684       2.75318919       2.05424307       0.00000000
Si       2.74504419       2.10637845       1.32883699       0.00000000
Si      -0.62845191       0.82588671       3.63193274       0.00000000
Si       3.62125071      -1.03811283      -0.75173462       0.00000000
