10
Lattice="16.28999089631971 0.0 0.0 0.0 16.28999089631971 0.0 0.0 0.0 34.281931910070035" Properties=species:S:1:pos:R:3:initial_magmoms:R:1 pbc="T T T"
Si      -0.11056023       1.58509277      -1.64639070       0.00000000
Si       2.18471706      -0.09868482       0.80545444       0.00000000
Si      -0.56032713      -2.20506327      -0.52338255       0.00000000
Si      -1.69730397       0.54812592       1.53086052       0.00000000
Si      -2.41219062       1.41222897      -2.17176160       0.00000000
Si      -3.50015085       0.46450935      -0.26115990       0.00000000
Si      -1.18877904      -1.37917656       3.10855020       0.00000000
Si      -0.47439738      -3.16148175       1.66552003       0.00000000
Si       0.31534182       3.65157359      -0.66321863       0.00000000
Si       3.52580760       1.43187471      -0.37216486       0.00000000
