10
Lattice="16.28999089631971 0.0 0.0 0.0 16.28999089631971 0.0 0.0 0.0 34.281931910070035" Properties=species:S:1:pos:R:3:initial_magmoms:R:1 pbc="T T T"
Si      -0.77002830      -1.84715079       1.17405672       0.00000000
Si       1.88670780       0.92274705       1.08947629       0.00000000
Si      -0.93540438      -0.59005638      -2.11270961       0.00000000
Si      -1.46201121       1.88639829      -0.21150117       0.00000000
Si      -2.01657168      -0.34443576       2.55699406       0.00000000
Si      -0.80668080       1.55846430      -2.97332371       0.00000000
Si       2.41344495      -1.39779603      -2.13941525       0.00000000
Si       0.69887358       2.38871673       2.54969200       0.00000000
Si       2.86876674       0.93309120      -1.97619888       0.00000000
Si      -3.29825259       1.04094729       1.10929469       0.00000000
