10
Lattice="16.28999089631971 0.0 0.0 0.0 16.28999089631971 0.0 0.0 0.0 34.281931910070035" Properties=species:S:1:pos:R:3:initial_magmoms:R:1 pbc="T T T"
Si      -1.35837945      -1.35536058      -1.35732529       0.00000000
Si      -1.35693063       1.35725022       1.35801093       0.00000000
Si       1.35756136      -1.35728280       1.35797665       0.00000000
Si       1.35775684       1.35886293      -1.35698247       0.00000000
Si      -0.00327918       2.71371852      -2.71074243       0.00000000
Si      -2.71243717      -0.00022806      -2.71526765       0.00000000
Si      -2.71421278       2.71433754       0.00078848       0.00000000
Si       0.00192385      -2.71414206       2.71447917       0.00000000
Si      -2.71409875      -0.00035838       2.71458201       0.00000000
Si       2.71455094       2.71474479       0.00034282       0.00000000
