10
Lattice="16.28999089631971 0.0 0.0 0.0 16.28999089631971 0.0 0.0 0.0 34.281931910070035" Properties=species:S:1:pos:R:3:initial_magmoms:R:1 pbc="T T T"
Si      -1.88670780      -0.92274705      -1.08947629       0.00000000
Si      -1.18783422       1.46596968       1.46021571       0.00000000
Si       0.99873990       1.78329888      -1.33388813       0.00000000
Si       1.52907714      -1.25421597       1.44598184       0.00000000
Si       0.98205894       0.01034415      -3.06567517       0.00000000
Si      -3.34871901       0.96365124      -1.30097746       0.00000000
Si      -2.52125217       2.80202661      -0.06834793       0.00000000
Si      -2.53426788       0.10847511       2.83494937       0.00000000
Si      -2.65673610      -2.76989784       0.08458043       0.00000000
Si       0.17905968      -2.60792637       2.83227538       0.00000000
