10
Lattice="16.28999089631971 0.0 0.0 0.0 16.28999089631971 0.0 0.0 0.0 34.281931910070035" Properties=species:S:1:pos:R:3:initial_magmoms:R:1 pbc="T T T"
Si      -1.38608352       1.29057525       1.33421925       0.00000000
Si      -1.36692648      -1.33669224      -1.35677678       0.00000000
Si       1.34273583       1.37902995      -1.35725672       0.00000000
Si       1.27024533      -1.31712795       1.57642124       0.00000000
Si       0.34036326       2.34737271       2.57649431       0.00000000
Si       2.13671436       0.54149589       2.79202494       0.00000000
Si      -2.33869014      -0.37282923       2.69151026       0.00000000
Si       2.68608483      -2.67740485       0.01796374       0.00000000
Si      -0.01353699      -2.69482701      -2.71687890       0.00000000
Si       2.70375623       0.02150280      -2.71749598       0.00000000
