10
Lattice="16.28999089631971 0.0 0.0 0.0 16.28999089631971 0.0 0.0 0.0 34.281931910070035" Properties=species:S:1:pos:R:3:initial_magmoms:R:1 pbc="T T T"
Si      -2.01010455      -1.05484918       0.60836750       0.00000000
Si      -0.36059544       1.71447363       1.60535520       0.00000000
Si       1.62556281      -1.36264940       1.18810958       0.00000000
Si      -0.15198570       0.61502895      -2.55654222       0.00000000
Si       0.10813302       3.23877780      -0.13102562       0.00000000
Si       0.76962105      -3.44553767       0.44662526       0.00000000
Si      -1.71771534      -3.27074597      -0.14137877       0.00000000
Si      -3.79721529       0.36388602      -0.13555083       0.00000000
Si       0.90215649       1.19000079       3.51400283       0.00000000
Si      -2.04718059      -1.37862989       2.93775751       0.00000000
