10
Lattice="16.28999089631971 0.0 0.0 0.0 16.28999089631971 0.0 0.0 0.0 34.281931910070035" Properties=species:S:1:pos:R:3:initial_magmoms:R:1 pbc="T T T"
Si      -1.35782037      -1.35769005       1.35591973       0.00000000
Si      -1.35777150       1.35695700      -1.35780524       0.00000000
Si       1.35780408      -1.35801585      -1.35749670       0.00000000
Si       1.35801585       1.35788553       1.35790808       0.00000000
Si       2.71467963      -0.00079821      -2.71382781       0.00000000
Si      -0.00242721       2.71321353      -2.71547334       0.00000000
Si       2.71473821       2.71448415      -0.00003428       0.00000000
Si      -2.71511946       2.71480995      -0.00003428       0.00000000
Si       2.71508623      -2.71510317      -0.00027426       0.00000000
Si       0.00076563      -2.71570590      -2.71513052       0.00000000
