10
Lattice="16.28999089631971 0.0 0.0 0.0 16.28999089631971 0.0 0.0 0.0 34.281931910070035" Properties=species:S:1:pos:R:3:initial_magmoms:R:1 pbc="T T T"
Si       2.13715026       0.44587359       0.95416954       0.00000000
Si      -0.98537070       2.17577385      -0.07466609       0.00000000
Si      -1.13380192      -0.99787653       1.95924779       0.00000000
Si       1.27552329      -0.59246730      -2.28945154       0.00000000
Si       3.05020476      -0.98290602      -0.73555354       0.00000000
Si      -3.30837587       1.29629304       0.27644965       0.00000000
Si      -3.26297564      -1.00002681       1.03651479       0.00000000
Si       2.20283154       2.86497117       1.17652228       0.00000000
Si      -1.66659080       2.48306841      -2.36243781       0.00000000
Si      -0.01192428      -3.02417334       2.33504653       0.00000000
