10
Lattice="16.28999089631971 0.0 0.0 0.0 16.28999089631971 0.0 0.0 0.0 34.281931910070035" Properties=species:S:1:pos:R:3:initial_magmoms:R:1 pbc="T T T"
Si      -1.25574723      -1.16862831       1.57014764       0.00000000
Si      -0.61963902       2.27841714       0.12598617       0.00000000
Si       2.04713402       0.18138915       1.18920660       0.00000000
Si       0.17580168      -1.02394053      -2.15839164       0.00000000
Si       2.21836147      -2.13876297      -1.70305877       0.00000000
Si      -0.27565938      -0.29680380       3.51499701       0.00000000
Si       3.48714233      -0.62589438      -0.41584007       0.00000000
Si      -3.51960111      -1.00432737       1.00452973       0.00000000
Si       0.03279177       0.70410267      -3.74821712       0.00000000
Si       2.46372308       2.46598020       1.68468364       0.00000000
