10
Lattice="16.28999089631971 0.0 0.0 0.0 16.28999089631971 0.0 0.0 0.0 34.281931910070035" Properties=species:S:1:pos:R:3:initial_magmoms:R:1 pbc="T T T"
Si       1.97501493      -1.18485315      -0.19739547       0.00000000
Si       0.16907391       2.14822746      -0.99019987       0.00000000
Si      -1.81095930      -1.54219059      -0.37326188       0.00000000
Si      -0.87962742       0.52701408       2.24282808       0.00000000
Si      -2.03994783       1.80507861      -1.66850256       0.00000000
Si      -3.33120726       0.34582041      -0.28519155       0.00000000
Si       2.39553314      -0.84497859      -2.57049497       0.00000000
Si       1.30513592      -3.46188564       0.20181785       0.00000000
Si      -1.21593447      -3.44960298       0.88361729       0.00000000
Si      -3.06698346      -0.46991763       2.13254305       0.00000000
