10
Lattice="16.28999089631971 0.0 0.0 0.0 16.28999089631971 0.0 0.0 0.0 34.281931910070035" Properties=species:S:1:pos:R:3:initial_magmoms:R:1 pbc="T T T"
Si      -0.57919095       1.77049494      -1.39962922       0.00000000
Si      -1.07272908      -2.05322418      -0.30843471       0.00000000
Si      -0.41041026       0.84753612       2.16373962       0.00000000
Si       2.16006119      -0.97124238      -0.46404049       0.00000000
Si       1.88644946       0.45882414       2.93539206       0.00000000
Si       2.83177934      -1.45186254       1.77429666       0.00000000
Si       0.63777209       1.21222035      -3.38925081       0.00000000
Si      -3.35530017      -1.61984502      -0.34515068       0.00000000
Si       0.27675081       3.85338321      -0.65814490       0.00000000
Si      -1.72515987      -0.47890971       3.56576858       0.00000000
