10
Lattice="16.28999089631971 0.0 0.0 0.0 16.28999089631971 0.0 0.0 0.0 34.281931910070035" Properties=species:S:1:pos:R:3:initial_magmoms:R:1 pbc="T T T"
Si       0.09752823       2.23563050      -0.77580055       0.00000000
Si      -1.27593054      -1.62509040      -1.17487675       0.00000000
Si       2.13444612      -0.72744624       0.76321908       0.00000000
Si      -1.61720604       0.40367681       1.73380968       0.00000000
Si       1.85541471      -0.70882677      -2.37320234       0.00000000
Si       2.01916179       0.25045875       3.00803551       0.00000000
Si      -0.86317452       2.14852787      -2.90594386       0.00000000
Si      -3.54553479      -1.17608913      -0.66095602       0.00000000
Si      -1.35027810       3.53985677       0.55811016       0.00000000
Si       0.15359841       0.24521337      -3.83210505       0.00000000
