10
Lattice="16.28999089631971 0.0 0.0 0.0 16.28999089631971 0.0 0.0 0.0 34.281931910070035" Properties=species:S:1:pos:R:3:initial_magmoms:R:1 pbc="T T T"
Si      -0.06318891       2.31422323      -0.22437537       0.00000000
Si      -0.36849609      -0.56663136      -2.22657844       0.00000000
Si      -1.53793890      -1.05015114       1.46562197       0.00000000
Si       2.28315753      -0.74896533       0.14844085       0.00000000
Si       0.36111672      -1.87390386       2.90416120       0.00000000
Si       0.55798137      -2.67082695      -2.27498455       0.00000000
Si       1.96613784       2.69930906       1.21433527       0.00000000
Si       3.30916593       1.40256153      -0.25560623       0.00000000
Si       0.97259445       0.96392817      -3.40419774       0.00000000
Si      -2.36964114       0.70271802       3.01259501       0.00000000
