10
Lattice="16.28999089631971 0.0 0.0 0.0 16.28999089631971 0.0 0.0 0.0 34.281931910070035" Properties=species:S:1:pos:R:3:initial_magmoms:R:1 pbc="T T T"
Si       2.33328186       0.18019998      -0.44744803       0.00000000
Si      -1.51335077       0.55399032      -1.76603471       0.00000000
Si      -0.54698562      -2.45693925       0.16109089       0.00000000
Si      -0.29815587       1.91749590       1.63689460       0.00000000
Si      -1.14464617      -0.00718389       3.12039945       0.00000000
Si      -2.97827531      -0.99505836       1.74796812       0.00000000
Si       0.62615502       3.53255166      -0.45447583       0.00000000
Si      -0.84347177       2.83102281      -2.16524803       0.00000000
Si       3.21282783      -1.11418713       1.46634189       0.00000000
Si       2.69241120       2.55832821      -0.82112129       0.00000000
