10
Lattice="16.28999089631971 0.0 0.0 0.0 16.28999089631971 0.0 0.0 0.0 34.281931910070035" Properties=species:S:1:pos:R:3:initial_magmoms:R:1 pbc="T T T"
Si      -1.70828573      -0.99481401       1.24898884       0.00000000
Si       1.12181411       1.72193445       1.24898541       0.00000000
Si      -1.57871507       0.84988188      -1.60836863       0.00000000
Si       1.82124318      -1.77551226      -0.24644956       0.00000000
Si      -0.32471754      -2.30122314       2.67010255       0.00000000
Si       2.74555407      -0.16045650      -2.33781998       0.00000000
Si       2.38345995       0.41930460       2.70271497       0.00000000
Si      -2.58371033      -2.70334179      -0.24891786       0.00000000
Si      -0.69908765       0.32286780      -3.85119671       0.00000000
Si       3.59183586      -0.96677892       1.29841656       0.00000000
