10
Lattice="16.28999089631971 0.0 0.0 0.0 16.28999089631971 0.0 0.0 0.0 34.281931910070035" Properties=species:S:1:pos:R:3:initial_magmoms:R:1 pbc="T T T"
Si       1.26164584      -1.30262985       1.45372956       0.00000000
Si       1.86427810       0.89270829      -1.19499065       0.00000000
Si      -1.12181411      -1.72193445      -1.24898541       0.00000000
Si      -1.44756754       1.42399035       1.38323216       0.00000000
Si       2.47002175      -2.68871337       0.04943115       0.00000000
Si       2.62736686       0.05927931       2.78447606       0.00000000
Si      -0.09209226      -2.65722480       2.78996117       0.00000000
Si       0.69942907      -3.49744671      -1.49543497       0.00000000
Si       2.67985324       2.80207548      -0.04174170       0.00000000
Si       3.63661381      -0.97145415      -1.06673913       0.00000000
