10
Lattice="16.28999089631971 0.0 0.0 0.0 16.28999089631971 0.0 0.0 0.0 34.281931910070035" Properties=species:S:1:pos:R:3:initial_magmoms:R:1 pbc="T T T"
Si       0.98537070      -2.17577385       0.07466609       0.00000000
Si      -0.68122011       0.30729456      -2.28777172       0.00000000
Si      -2.32300517      -0.87948081       0.35111574       0.00000000
Si       0.14325915       1.72128285       1.86812636       0.00000000
Si       3.18820224       0.68919732       1.25118837       0.00000000
Si       2.08564617       2.78171298       1.11306639       0.00000000
Si       3.12252096      -1.72990026       1.02883563       0.00000000
Si      -3.08953112       0.63930105       2.02373214       0.00000000
Si      -0.14843122      -3.17365038       2.03391387       0.00000000
Si       0.99234282       3.70429713      -0.71765836       0.00000000
