10
Lattice="16.28999089631971 0.0 0.0 0.0 16.28999089631971 0.0 0.0 0.0 34.281931910070035" Properties=species:S:1:pos:R:3:initial_magmoms:R:1 pbc="T T T"
Si      -2.00898054       0.69678846      -0.98135513       0.00000000
Si       1.53388269       0.30322206      -1.74714535       0.00000000
Si      -0.18984366      -2.28001356       0.58375306       0.00000000
Si       0.93375909       1.27050597       1.81430370       0.00000000
Si       3.01881393       0.30584475       1.44988656       0.00000000
Si       0.72936846       2.27410029      -2.73525403       0.00000000
Si       3.64625586       0.58394763      -0.78265694       0.00000000
Si      -1.55882268       2.62814715      -2.23100081       0.00000000
Si      -3.44898885       1.50407199       0.62369154       0.00000000
Si       0.79464249      -2.66087376       2.64468112       0.00000000
