10
Lattice="16.28999089631971 0.0 0.0 0.0 16.28999089631971 0.0 0.0 0.0 34.281931910070035" Properties=species:S:1:pos:R:3:initial_magmoms:R:1 pbc="T T T"
Si      -0.45015786      -1.93135869       1.24964568       0.00000000
Si       2.28819114      -0.35404686      -0.50425322       0.00000000
Si      -0.67171815       0.48062016      -2.23833715       0.00000000
Si      -0.94532988       1.91068668       1.16109540       0.00000000
Si       1.27066887       1.54105029      -2.99339712       0.00000000
Si      -1.89016617      -1.12407516       2.85469235       0.00000000
Si      -2.83177934       1.45186254      -1.77429666       0.00000000
Si       3.23693703       1.69735284       0.04178970       0.00000000
Si       2.37322494      -0.55146537      -2.85527514       0.00000000
Si       1.55882268      -2.62814715       2.23100081       0.00000000
