10
Lattice="16.28999089631971 0.0 0.0 0.0 16.28999089631971 0.0 0.0 0.0 34.281931910070035" Properties=species:S:1:pos:R:3:initial_magmoms:R:1 pbc="T T T"
Si       2.15559054      -0.86030748      -0.13198551       0.00000000
Si      -1.58095264      -1.13124276      -1.39462405       0.00000000
Si       0.37545192       2.03362731      -1.21879192       0.00000000
Si      -0.42051821      -0.33987456       2.37309950       0.00000000
Si      -2.39553314       0.84497859       2.57049497       0.00000000
Si       1.87579350      -3.11906259       0.32087906       0.00000000
Si      -0.30322206       3.64229739       0.30353239       0.00000000
Si       2.83392243      -0.36733950      -2.33926321       0.00000000
Si       3.53535354       0.15864831       1.52739805       0.00000000
Si      -1.54882551      -0.13377348      -3.52987537       0.00000000
