10
Lattice="16.28999089631971 0.0 0.0 0.0 16.28999089631971 0.0 0.0 0.0 34.281931910070035" Properties=species:S:1:pos:R:3:initial_magmoms:R:1 pbc="T T T"
Si      -1.43523045       0.78770295       1.72763892       0.00000000
Si       1.55235555       1.31040018      -1.27864821       0.00000000
Si       1.91550852       0.07951149       1.48259154       0.00000000
Si      -1.25040411      -1.66203612      -1.26020452       0.00000000
Si      -0.34192710      -0.13488120       3.55836368       0.00000000
Si       0.10427229       2.35457289      -2.75558323       0.00000000
Si      -2.59370520      -0.36849609      -2.74156191       0.00000000
Si      -1.20391245       3.13613451       1.75958970       0.00000000
Si       2.80917792      -0.34287192      -2.70450312       0.00000000
Si       2.72184723       2.96925975      -0.05666807       0.00000000
