10
Lattice="16.28999089631971 0.0 0.0 0.0 16.28999089631971 0.0 0.0 0.0 34.281931910070035" Properties=species:S:1:pos:R:3:initial_magmoms:R:1 pbc="T T T"
Si       1.01302623       1.87271373       0.95132414       0.00000000
Si       1.41566616      -1.77173298      -0.54539156       0.00000000
Si      -0.63381132      -0.96700698       2.12037296       0.00000000
Si      -1.32774903       1.12953298      -1.73644939       0.00000000
Si      -2.11735791       0.69128311       2.61622710       0.00000000
Si      -0.92926305       2.69310257       2.18297180       0.00000000
Si       2.41240239       1.01078865       2.57896261       0.00000000
Si      -0.57197448      -0.05201397      -3.64101746       0.00000000
Si       2.63832840      -1.10504844      -2.47896216       0.00000000
Si      -3.53568653       0.44116578      -1.28128792       0.00000000
