10
Lattice="16.28999089631971 0.0 0.0 0.0 16.28999089631971 0.0 0.0 0.0 34.281931910070035" Properties=species:S:1:pos:R:3:initial_magmoms:R:1 pbc="T T T"
Si      -1.48354659       1.65829009       0.49585414       0.00000000
Si      -1.29217656      -1.98638631       0.19187608       0.00000000
Si       1.76383233       0.34612992       1.60933191       0.00000000
Si       0.63381132       0.96700698      -2.12037296       0.00000000
Si       2.04947748      -0.80472600      -2.66576452       0.00000000
Si       1.64683755       2.83972071      -1.16904881       0.00000000
Si       2.81489571      -1.74796587       1.42448363       0.00000000
Si       3.04621371       1.97779563       0.45858966       0.00000000
Si      -0.29545173       3.66010955       0.06259884       0.00000000
Si       2.89009035      -2.19972015      -0.92742962       0.00000000
