10
Lattice="10.86 0.0 0.0 0.0 10.86 0.0 0.0 0.0 10.86" Properties=species:S:1:pos:R:3:initial_magmoms:R:1 pbc="T T T"
Si       1.15960908      -1.30756572      -1.16197656       0.00000000
Si       1.12272852       1.86562854       0.92606478       0.00000000
Si      -1.55539092       1.40743428      -1.16197656       0.00000000
Si      -1.55539092      -1.30756572       1.55302344       0.00000000
Si       2.52367938      -0.14028948      -2.52491742       0.00000000
Si      -0.41741496       2.48045658      -2.59280328       0.00000000
Si       2.51710908      -2.66506572       0.19552344       0.00000000
Si      -0.19789092      -2.66506572      -2.51947656       0.00000000
Si       2.36055132       0.35237442       2.83442742       0.00000000
Si      -2.91289092       0.04993428      -2.51947656       0.00000000
