10
Lattice="10.86 0.0 0.0 0.0 10.86 0.0 0.0 0.0 10.86" Properties=species:S:1:pos:R:3:initial_magmoms:R:1 pbc="T T T"
Si       1.38079470       1.27202094       1.30757658       0.00000000
Si      -1.33420530       1.27202094      -1.40742342       0.00000000
Si       1.38079470      -1.44297906      -1.40742342       0.00000000
Si      -1.11715734      -1.63293132       1.46323296       0.00000000
Si       2.58347454      -0.01739772       2.59964508       0.00000000
Si      -2.50951794      -0.14018088       2.70998268       0.00000000
Si       0.02329470       2.62952094       2.66507658       0.00000000
Si      -2.69170530       2.62952094      -0.04992342       0.00000000
Si       2.73829470       2.62952094      -0.04992342       0.00000000
Si       0.02329470       2.62952094      -2.76492342       0.00000000
