10
Lattice="10.86 0.0 0.0 0.0 10.86 0.0 0.0 0.0 10.86" Properties=species:S:1:pos:R:3:initial_magmoms:R:1 pbc="T T T"
Si       1.17531264       1.41220182       1.31259390       0.00000000
Si       1.39236060      -1.49275044      -1.24674972       0.00000000
Si      -1.53968736      -1.30279818       1.31259390       0.00000000
Si      -1.53968736       1.41220182      -1.40240610       0.00000000
Si       2.50951794       0.14018088      -2.70998268       0.00000000
Si       2.58933894       0.04133316       2.65389078       0.00000000
Si       2.53281264       2.76970182      -0.04490610       0.00000000
Si      -0.31105212      -2.76018846       2.59978626       0.00000000
Si      -0.18218736       2.76970182       2.67009390       0.00000000
Si      -0.18218736       2.76970182      -2.75990610       0.00000000
