10
Lattice="10.86 0.0 0.0 0.0 10.86 0.0 0.0 0.0 10.86" Properties=species:S:1:pos:R:3:initial_magmoms:R:1 pbc="T T T"
Si       1.56443730       0.61045146       1.66436016       0.00000000
Si       1.26035730      -1.45064622      -1.41737118       0.00000000
Si      -1.45464270       1.26435378      -1.41737118       0.00000000
Si      -1.45464270      -1.45064622       1.29762882       0.00000000
Si       2.28713772       2.44359774       0.10671036       0.00000000
Si       0.11080458       2.42474478       2.74456092       0.00000000
Si       0.28612842      -2.48999166       2.73029088       0.00000000
Si       2.61785730      -0.09314622      -2.77487118       0.00000000
Si      -0.09714270       2.62185378      -2.77487118       0.00000000
Si      -2.81214270       2.62185378      -0.05987118       0.00000000
