10
Lattice="16.28999089631971 0.0 0.0 0.0 16.28999089631971 0.0 0.0 0.0 34.24959146834617" Properties=species:S:1:pos:R:3:initial_magmoms:R:1 pbc="T T T"
Si      -1.26321258       1.39763313      -1.40844331       0.00000000
Si      -1.35948648      -1.34587980       1.36933026       0.00000000
Si       1.35512051       1.36567215       1.36638479       0.00000000
Si       1.37766587      -1.41394268      -1.39949389       0.00000000
Si       0.69359828       2.10333222      -2.77355200       0.00000000
Si      -2.34545502      -0.24161328      -2.80924010       0.00000000
Si       2.37943409       0.21763440      -2.85369609       0.00000000
Si      -2.71655751      -2.69731882      -0.00939809       0.00000000
Si      -0.00399966      -2.70429217       2.72619708       0.00000000
Si       2.72766542      -2.70724229       0.00770959       0.00000000
