10
Lattice="16.28999089631971 0.0 0.0 0.0 16.28999089631971 0.0 0.0 0.0 34.24959146834617" Properties=species:S:1:pos:R:3:initial_magmoms:R:1 pbc="T T T"
Si      -0.19003914      -0.83046420      -2.12275662       0.00000000
Si       0.02127474      -2.24575569       0.62190443       0.00000000
Si      -2.26970916       0.59080572      -0.17782398       0.00000000
Si       1.99164798       1.78689897       0.34420859       0.00000000
Si       0.88505199       1.83832650       2.45908779       0.00000000
Si       1.44182790      -1.88229321       2.49826935       0.00000000
Si      -0.92301746       0.94978845      -3.31841052       0.00000000
Si      -2.12272058       2.31904914      -1.88256410       0.00000000
Si      -2.90604545       1.09895598       1.99572481       0.00000000
Si       0.47822553      -0.12165372       3.77345085       0.00000000
