10
Lattice="16.28999089631971 0.0 0.0 0.0 16.28999089631971 0.0 0.0 0.0 34.24959146834617" Properties=species:S:1:pos:R:3:initial_magmoms:R:1 pbc="T T T"
Si      -1.00768311       1.94018787      -0.84110194       0.00000000
Si      -1.77015285      -1.55119896       0.14744457       0.00000000
Si       1.51567047      -0.41006817      -1.78382247       0.00000000
Si       0.95855247      -0.11955231       2.24218501       0.00000000
Si      -0.41060574      -3.45931182      -0.37986243       0.00000000
Si       2.83812525      -2.03639661      -0.64111846       0.00000000
Si       2.34549936       1.88659377      -2.13916218       0.00000000
Si      -2.50094506      -1.32916626       2.57755720       0.00000000
Si       0.69045165      -2.58460398       2.81319452       0.00000000
Si       0.29866086       2.98266383      -2.48285702       0.00000000
