10
Lattice="16.28999089631971 0.0 0.0 0.0 16.28999089631971 0.0 0.0 0.0 34.24959146834617" Properties=species:S:1:pos:R:3:initial_magmoms:R:1 pbc="T T T"
Si       1.35762489       1.35023738      -1.36929943       0.00000000
Si      -1.35738054      -1.36287317      -1.37173115       0.00000000
Si       1.26341982      -1.29525406       1.55513782       0.00000000
Si      -1.27959579       1.40774107       1.44368959       0.00000000
Si      -2.11524021      -0.32716184       2.88768742       0.00000000
Si      -0.48475782      -2.23428657       2.81785246       0.00000000
Si       2.19012534       0.56002577       2.92659498       0.00000000
Si       2.70444951      -2.70669657       0.01935103       0.00000000
Si      -2.69790093      -2.73451989      -0.00462370       0.00000000
Si       2.72653875       2.70976819       0.01072013       0.00000000
