10
Lattice="16.28999089631971 0.0 0.0 0.0 16.28999089631971 0.0 0.0 0.0 34.24959146834617" Properties=species:S:1:pos:R:3:initial_magmoms:R:1 pbc="T T T"
Si      -1.74817764      -0.93903251       1.26271464       0.00000000
Si      -1.26341982       1.29525406      -1.55513782       0.00000000
Si       0.92670552       1.85527983       1.37145716       0.00000000
Si       1.44102969      -1.41144251      -1.53578679       0.00000000
Si      -0.33070329      -1.45928624       3.18463154       0.00000000
Si      -2.54301561       2.70299514      -0.11144823       0.00000000
Si      -3.37866003       0.96809222       1.33254960       0.00000000
Si      -2.56042962      -2.82218909       0.03911306       0.00000000
Si       2.81404863       2.72244540       0.09963212       0.00000000
Si      -2.62080036      -0.06761911      -2.92686897       0.00000000
