10
Lattice="16.28999089631971 0.0 0.0 0.0 16.28999089631971 0.0 0.0 0.0 34.24959146834617" Properties=species:S:1:pos:R:3:initial_magmoms:R:1 pbc="T T T"
Si       0.83564442       1.73490292      -1.44399783       0.00000000
Si      -1.70751780      -0.89414344      -1.53006710       0.00000000
Si       1.63048239      -1.90712473      -0.06983496       0.00000000
Si       0.08500122       0.79630570       2.44579894       0.00000000
Si      -2.91227733       1.05697828       1.36717596       0.00000000
Si       2.11524021       0.32716184      -2.88768742       0.00000000
Si      -0.27748386      -1.41124084       3.32515770       0.00000000
Si       2.41149015       2.85111001       0.03048215       0.00000000
Si       3.37866003      -0.96809222      -1.33254960       0.00000000
Si      -0.58266072      -2.40735805      -2.89231112       0.00000000
