10
Lattice="16.28999089631971 0.0 0.0 0.0 16.28999089631971 0.0 0.0 0.0 34.24959146834617" Properties=species:S:1:pos:R:3:initial_magmoms:R:1 pbc="T T T"
Si      -0.01531260      -1.52677536       1.76553318       0.00000000
Si       0.37649448       2.28235932       0.40054920       0.00000000
Si       2.07570438      -0.67265645      -1.10681042       0.00000000
Si      -2.33569278      -0.36626436      -1.10061124       0.00000000
Si      -1.06290621       2.94967917      -1.46595183       0.00000000
Si      -0.57257721      -3.46192541       0.33109099       0.00000000
Si       3.65601357       0.49213719       0.18724262       0.00000000
Si      -2.69817786      -2.57381090      -0.22125248       0.00000000
Si       2.74431114       2.62031166       0.17011782       0.00000000
Si      -0.00920385       1.68853995      -3.51592803       0.00000000
