10
Lattice="16.28999089631971 0.0 0.0 0.0 16.28999089631971 0.0 0.0 0.0 34.24959146834617" Properties=species:S:1:pos:R:3:initial_magmoms:R:1 pbc="T T T"
Si      -0.98217297       1.13671620       1.82831271       0.00000000
Si       1.54512279      -1.81119713       0.30934248       0.00000000
Si       1.43005023       1.64455695      -1.05163429       0.00000000
Si      -2.01619701      -0.55980585      -1.39913084       0.00000000
Si      -1.79970291       2.78733303       0.24906317       0.00000000
Si       0.25283709       2.23234902      -3.00358810       0.00000000
Si      -1.51309665      -2.58367219      -2.42045423       0.00000000
Si       2.21047155      -2.45599280      -1.98880639       0.00000000
Si       0.44002548      -3.71761325       1.10030299       0.00000000
Si      -1.88703360       2.64971511      -2.16683586       0.00000000
