10
Lattice="16.28999089631971 0.0 0.0 0.0 16.28999089631971 0.0 0.0 0.0 34.24959146834617" Properties=species:S:1:pos:R:3:initial_magmoms:R:1 pbc="T T T"
Si      -1.35812988      -1.35672894      -1.35775731       0.00000000
Si       1.35736425       1.35806472      -1.35751757       0.00000000
Si      -1.35620766       1.35741312       1.35936705       0.00000000
Si       1.35835794      -1.35692442       1.36101103       0.00000000
Si      -2.71428704      -2.71394658      -0.00095899       0.00000000
Si      -2.71442713       0.00001629      -2.71500088       0.00000000
Si       0.00045612       2.71505430      -2.71469264       0.00000000
Si       2.71510317      -2.71518462      -0.00003425       0.00000000
Si       2.71524978       0.00037467      -2.71534338       0.00000000
Si       0.00058644      -2.71505430      -2.71575437       0.00000000
