10
Lattice="16.28999089631971 0.0 0.0 0.0 16.28999089631971 0.0 0.0 0.0 34.24959146834617" Properties=species:S:1:pos:R:3:initial_magmoms:R:1 pbc="T T T"
Si      -2.24256285       0.15012864       0.53069772       0.00000000
Si       1.25162586       1.97170902       0.26142728       0.00000000
Si      -0.08733069      -0.13761792      -2.41589903       0.00000000
Si       0.81752994      -1.65061683       1.57924955       0.00000000
Si       1.79970291      -2.78733303      -0.24906317       0.00000000
Si       3.35047833       0.77374242       0.19443504       0.00000000
Si      -2.97813780       1.17501399      -1.45646469       0.00000000
Si      -2.61638577      -2.16394731       1.05492226       0.00000000
Si       3.22975314      -1.14277608      -1.30069746       0.00000000
Si      -0.21649410      -3.34713888      -1.64819401       0.00000000
