10
Lattice="16.28999089631971 0.0 0.0 0.0 16.28999089631971 0.0 0.0 0.0 34.24959146834617" Properties=species:S:1:pos:R:3:initial_magmoms:R:1 pbc="T T T"
Si      -1.70714313      -0.15903927      -1.59788133       0.00000000
Si      -1.37738466       0.87311142       1.77008838       0.00000000
Si       0.68825250      -2.24386605       0.54049311       0.00000000
Si       1.84435380       0.97489134      -1.83975208       0.00000000
Si      -2.27330208       2.65688271       0.30701351       0.00000000
Si      -2.44595979       1.97223030      -2.07056021       0.00000000
Si       2.82364344      -2.10048147       1.43831240       0.00000000
Si      -0.83253303      -1.02071511      -3.60230554       0.00000000
Si      -3.72428333      -0.96207111      -0.51980634       0.00000000
Si       1.55545065       3.13160589       1.75512130       0.00000000
