10
Lattice="16.28999089631971 0.0 0.0 0.0 16.28999089631971 0.0 0.0 0.0 34.24959146834617" Properties=species:S:1:pos:R:3:initial_magmoms:R:1 pbc="T T T"
Si       1.35863487      -1.35729909       1.36022329       0.00000000
Si      -1.35896067       1.35814617       1.36073703       0.00000000
Si      -1.35234693      -1.37259540      -1.36691908       0.00000000
Si       1.36933740       1.36933740      -1.39914112       0.00000000
Si       0.19758141      -2.49113196      -2.82790130       0.00000000
Si      -2.68105707       0.02914281      -2.69574918       0.00000000
Si       2.71301805      -2.71453302       0.00458945       0.00000000
Si       2.71300176       2.71546155       0.00017125       0.00000000
Si      -2.71471221       2.71653669       0.00297972       0.00000000
Si       2.71420722       0.00017919       2.71719286       0.00000000
