10
Lattice="16.28999089631971 0.0 0.0 0.0 16.28999089631971 0.0 0.0 0.0 34.24959146834617" Properties=species:S:1:pos:R:3:initial_magmoms:R:1 pbc="T T T"
Si      -1.35648459      -1.35669636      -1.35762031       0.00000000
Si       1.35690813      -1.35698958       1.35717507       0.00000000
Si       1.35628911       1.35796698      -1.35700382       0.00000000
Si      -1.35793440       1.35770634       1.35727782       0.00000000
Si       2.71428867       2.71515204      -0.00058224       0.00000000
Si       2.71479366      -2.71467963      -0.00065074       0.00000000
Si       0.00003258       2.71485882       2.71469264       0.00000000
Si       2.71476108       0.00071676       2.71489813       0.00000000
Si      -0.00045612      -2.71505430       2.71469264       0.00000000
Si      -2.71488326      -2.71503801      -0.00030825       0.00000000
