10
Lattice="16.28999089631971 0.0 0.0 0.0 16.28999089631971 0.0 0.0 0.0 34.24959146834617" Properties=species:S:1:pos:R:3:initial_magmoms:R:1 pbc="T T T"
Si       1.35697329       1.35725022      -1.35786006       0.00000000
Si      -1.35785295      -1.35770634      -1.35772306       0.00000000
Si       1.35625653      -1.35692442       1.36121652       0.00000000
Si      -1.36039419       1.35731538       1.35888755       0.00000000
Si       2.71516833       2.71290402      -0.00003425       0.00000000
Si      -2.71472850       2.71414206      -0.00020550       0.00000000
Si      -2.71476108      -0.00071676      -2.71489813       0.00000000
Si      -0.00047241       2.71443528      -2.71548038       0.00000000
Si       2.71469592      -0.00071676      -2.71544613       0.00000000
Si       0.00003258      -2.71539639      -2.71554888       0.00000000
