10
Lattice="16.28999089631971 0.0 0.0 0.0 16.28999089631971 0.0 0.0 0.0 34.24959146834617" Properties=species:S:1:pos:R:3:initial_magmoms:R:1 pbc="T T T"
Si       0.18604809       1.65617172      -1.77810278       0.00000000
Si      -2.28200094      -0.30097404      -0.95415990       0.00000000
Si       2.37097692      -0.96756084      -0.27149666       0.00000000
Si      -0.70007904      -0.56659878       3.07455329       0.00000000
Si      -0.59645835      -0.97580358      -3.04999632       0.00000000
Si      -0.50932314      -3.22844994      -0.47151439       0.00000000
Si       2.22575157       2.72875419      -0.98488180       0.00000000
Si      -2.88690077       2.07024723      -1.15671210       0.00000000
Si       3.16289898      -0.75896739       2.06802574       0.00000000
Si       1.89108981      -3.23421660      -0.90713519       0.00000000
