10
Lattice="16.28999089631971 0.0 0.0 0.0 16.28999089631971 0.0 0.0 0.0 34.24959146834617" Properties=species:S:1:pos:R:3:initial_magmoms:R:1 pbc="T T T"
Si       1.35752715      -1.35747828       1.36573747       0.00000000
Si      -1.35878148       1.35886356       1.36580597       0.00000000
Si      -1.36852290      -1.36953288      -1.37530339       0.00000000
Si       1.38377034       1.36386396      -1.37923867       0.00000000
Si      -2.71423980      -2.71293660       0.00798016       0.00000000
Si       2.71316466       2.71419160       0.00493194       0.00000000
Si       2.71347417      -2.71401174       0.00517169       0.00000000
Si      -2.71489140       2.71523090       0.00441820       0.00000000
Si      -0.00048870      -2.71414206       2.72215905       0.00000000
Si       2.71474479       0.00123804       2.72178231       0.00000000
