10
Lattice="16.28999089631971 0.0 0.0 0.0 16.28999089631971 0.0 0.0 0.0 34.24959146834617" Properties=species:S:1:pos:R:3:initial_magmoms:R:1 pbc="T T T"
Si      -1.35760860       1.35698958      -1.35789431       0.00000000
Si      -1.35718506      -1.35853713       1.35720932       0.00000000
Si       1.35804843       1.35879777       1.35645583       0.00000000
Si       1.35707103      -1.35824391      -1.35806556       0.00000000
Si       0.00215028       2.71161325       2.71349390       0.00000000
Si      -2.71471221       2.71382323      -0.00065074       0.00000000
Si       2.71466334       2.71429828      -0.00023975       0.00000000
Si      -0.00122175       2.71476171      -2.71441864       0.00000000
Si       2.71508688      -0.00158013      -2.71448714       0.00000000
Si      -0.00092853      -2.71542897      -2.71448714       0.00000000
