10
Lattice="16.28999089631971 0.0 0.0 0.0 16.28999089631971 0.0 0.0 0.0 34.24959146834617" Properties=species:S:1:pos:R:3:initial_magmoms:R:1 pbc="T T T"
Si       2.12560065      -0.88811451       0.55234347       0.00000000
Si      -1.10659599       0.05142753       2.11487921       0.00000000
Si       0.36248508       2.20754654      -0.87935875       0.00000000
Si      -1.99164798      -1.78689897      -0.34420859       0.00000000
Si       2.68286526       1.04703553       1.98678566       0.00000000
Si       0.70731180       1.11030426       3.24203389       0.00000000
Si       0.27748386       1.41124084      -3.32515770       0.00000000
Si       1.62057807      -2.80710909       1.83341591       0.00000000
Si       2.69817786       2.57381090       0.22125248       0.00000000
Si       3.32544060      -1.01613762      -1.47307575       0.00000000
