10
Lattice="16.28999089631971 0.0 0.0 0.0 16.28999089631971 0.0 0.0 0.0 34.24959146834617" Properties=species:S:1:pos:R:3:initial_magmoms:R:1 pbc="T T T"
Si      -1.58615730      -1.39411449      -0.95463940       0.00000000
Si       1.51035993      -1.35913986       1.12201724       0.00000000
Si      -1.02872979       0.94143168       1.93356177       0.00000000
Si       1.22031648       1.09141371      -1.77536282       0.00000000
Si      -2.90861208       0.23221395      -2.09734340       0.00000000
Si       3.54649590      -0.43653942       0.51059319       0.00000000
Si       3.23323920      -0.12996162      -1.82177104       0.00000000
Si      -1.10842047       3.33715541       1.53931450       0.00000000
Si      -0.59906475      -2.97554769      -2.35657871       0.00000000
Si       1.31005809       3.42230161      -1.31384931       0.00000000
