10
Lattice="16.28999089631971 0.0 0.0 0.0 16.28999089631971 0.0 0.0 0.0 34.24959146834617" Properties=species:S:1:pos:R:3:initial_magmoms:R:1 pbc="T T T"
Si      -1.35498591       1.35171651       1.35974379       0.00000000
Si       1.35746199       1.35681528      -1.35635308       0.00000000
Si      -1.35747828      -1.35870901      -1.35642158       0.00000000
Si       1.35363384      -1.35709179       1.36412774       0.00000000
Si      -2.71471221       2.71334874       0.00099324       0.00000000
Si      -2.71409319      -2.71420952       0.00027400       0.00000000
Si      -0.00014661       2.71439130      -2.71393914       0.00000000
Si      -2.71492398      -0.00096600      -2.71390490       0.00000000
Si       2.71472850       2.71444017      -0.00003425       0.00000000
Si       2.71559187      -0.00141234      -2.71435014       0.00000000
