10
Lattice="16.28999089631971 0.0 0.0 0.0 16.28999089631971 0.0 0.0 0.0 34.24959146834617" Properties=species:S:1:pos:R:3:initial_magmoms:R:1 pbc="T T T"
Si      -1.10509731      -1.90641611       0.79096051       0.00000000
Si      -1.54512279       1.81119713      -0.30934248       0.00000000
Si       1.57838697       0.22368776       1.87550868       0.00000000
Si       0.66534876      -0.64479567      -2.29814887       0.00000000
Si      -2.50382187      -2.30244230      -1.04701060       0.00000000
Si      -0.11507256       3.45575408      -1.36097678       0.00000000
Si       0.49985865      -3.59076953       1.25490573       0.00000000
Si       0.78693732      -3.00872783      -2.26907095       0.00000000
Si      -2.25829899      -1.71339590       2.84860861       0.00000000
Si       3.62674044      -0.97144438       1.48691259       0.00000000
