10
Lattice="16.28999089631971 0.0 0.0 0.0 16.28999089631971 0.0 0.0 0.0 34.24959146834617" Properties=species:S:1:pos:R:3:initial_magmoms:R:1 pbc="T T T"
Si      -0.44784468      -1.04365795       2.11193374       0.00000000
Si       0.48428541       2.23568847       0.72242704       0.00000000
Si       2.04835347      -1.19513214      -0.38859608       0.00000000
Si      -1.57838697      -0.22368776      -1.87550868       0.00000000
Si      -2.68348428      -2.13010388      -1.08454817       0.00000000
Si       3.57901074       0.41169717       0.23265760       0.00000000
Si       2.61935055       2.56621257      -0.18840711       0.00000000
Si      -2.70861975      -0.48570916       2.60420339       0.00000000
Si      -0.53758629      -3.37454585       1.65042024       0.00000000
Si      -1.07852832      -3.81445730      -0.62060294       0.00000000
