10
Lattice="16.28999089631971 0.0 0.0 0.0 16.28999089631971 0.0 0.0 0.0 34.24959146834617" Properties=species:S:1:pos:R:3:initial_magmoms:R:1 pbc="T T T"
Si      -1.32882417       1.28875077       1.41011812       0.00000000
Si       1.12837572       1.66434930      -1.19096822       0.00000000
Si       1.40646231      -1.41736032       1.39275699       0.00000000
Si      -1.43438337      -1.16574498      -1.77052133       0.00000000
Si       0.62547084      -0.97875207      -2.81126425       0.00000000
Si      -2.49445512      -2.62863585      -0.11285932       0.00000000
Si      -0.58021722       3.35070639      -1.39894730       0.00000000
Si      -2.61503370       2.59957449      -0.16866221       0.00000000
Si       0.05071077       2.64660372       2.76770418       0.00000000
Si      -2.66378967      -0.07001442       2.77451986       0.00000000
