10
Lattice="16.28999089631971 0.0 0.0 0.0 16.28999089631971 0.0 0.0 0.0 34.24959146834617" Properties=species:S:1:pos:R:3:initial_magmoms:R:1 pbc="T T T"
Si       1.60265907       1.16675496       1.29713006       0.00000000
Si      -1.00176821      -1.63157708       1.45420220       0.00000000
Si       0.84264912      -0.97019982      -2.15358127       0.00000000
Si      -1.68583581       1.88569782       0.08014409       0.00000000
Si       2.42826885       2.31005232      -1.27120855       0.00000000
Si      -2.55941054       1.36583505      -2.24882943       0.00000000
Si      -2.37943409      -0.21763440       2.85369609       0.00000000
Si       0.34202484       2.51302572       2.84143130       0.00000000
Si      -1.94243752      -3.39091730       0.21848173       0.00000000
Si       2.40266097      -2.71204065      -1.78005501       0.00000000
