10
Lattice="16.28999089631971 0.0 0.0 0.0 16.28999089631971 0.0 0.0 0.0 34.24959146834617" Properties=species:S:1:pos:R:3:initial_magmoms:R:1 pbc="T T T"
Si       1.35599589       1.35775521      -1.35714082       0.00000000
Si       1.35676152      -1.35858600       1.35720932       0.00000000
Si      -1.35863487      -1.35746199      -1.35714082       0.00000000
Si      -1.36006839       1.35886293       1.36197002       0.00000000
Si       2.71300176      -2.71407690      -0.00051374       0.00000000
Si       2.71334385       0.00024435      -2.71421314       0.00000000
Si       2.71181259       2.71609686       0.00085624       0.00000000
Si      -0.00187335      -2.71412577      -2.71441864       0.00000000
Si      -0.00162900       2.71507059      -2.71469264       0.00000000
Si      -2.71629234       0.00039096      -2.71479538       0.00000000
