10
Lattice="16.28999089631971 0.0 0.0 0.0 16.28999089631971 0.0 0.0 0.0 34.24959146834617" Properties=species:S:1:pos:R:3:initial_magmoms:R:1 pbc="T T T"
Si       1.12506885      -1.96884198       0.56946828       0.00000000
Si      -0.31900707       1.54994463       1.72604338       0.00000000
Si      -2.37796533      -0.19640853       0.04144203       0.00000000
Si       0.50606514       0.44167077      -2.31743140       0.00000000
Si       0.15744285      -3.00102525      -1.29764925       0.00000000
Si      -2.54521476       1.90505034       1.10410470       0.00000000
Si       1.04795199       3.30411699       1.26158441       0.00000000
Si      -2.81180061      -2.26882233       0.96988047       0.00000000
Si       0.06876009       0.69761925       3.85198521       0.00000000
Si       1.40216175      -1.88165790      -3.14808721       0.00000000
