10
Lattice="16.28999089631971 0.0 0.0 0.0 16.28999089631971 0.0 0.0 0.0 34.24959146834617" Properties=species:S:1:pos:R:3:initial_magmoms:R:1 pbc="T T T"
Si       1.58262237       1.63771515      -0.56498158       0.00000000
Si       0.74603313      -0.90873765       2.10604281       0.00000000
Si      -2.09885247       1.19796660       0.06699224       0.00000000
Si      -0.12072519      -1.91651850      -1.49513250       0.00000000
Si      -3.35047833      -0.77374242      -0.19443504       0.00000000
Si      -1.29888315      -1.47149199       3.18021334       0.00000000
Si       3.67968294       0.60268113      -0.49463288       0.00000000
Si      -2.53294839      -2.42435925       1.38481451       0.00000000
Si       2.18284371       0.76408245       3.01588371       0.00000000
Si       1.19485521       2.49004053      -2.69092341       0.00000000
