10
Lattice="16.28999089631971 0.0 0.0 0.0 16.28999089631971 0.0 0.0 0.0 34.24959146834617" Properties=species:S:1:pos:R:3:initial_magmoms:R:1 pbc="T T T"
Si      -1.35625653       1.35692442      -1.36121652       0.00000000
Si       1.36006839      -1.35886293      -1.36197002       0.00000000
Si       1.37288862       1.35031068       1.36416199       0.00000000
Si      -1.37546244      -1.34934957       1.37775909       0.00000000
Si      -2.71311579      -2.71577106      -0.00041100       0.00000000
Si       2.71757925       2.71280628      -0.00469220       0.00000000
Si      -2.71665072       2.71423980      -0.00232897       0.00000000
Si      -2.71410948      -0.00078192      -2.71893959       0.00000000
Si       0.00071676       2.71417464      -2.71907659       0.00000000
Si       2.71682991      -2.71744893      -0.00476070       0.00000000
