10
Lattice="16.28999089631971 0.0 0.0 0.0 16.28999089631971 0.0 0.0 0.0 34.24959146834617" Properties=species:S:1:pos:R:3:initial_magmoms:R:1 pbc="T T T"
Si       1.34710155       1.34187246       1.37132016       0.00000000
Si       1.35430173      -1.35557235      -1.35642158       0.00000000
Si      -1.35866745       1.35702216      -1.35655858       0.00000000
Si      -1.34469063      -1.36249560       1.36885419       0.00000000
Si      -2.61827541       0.03207501       2.75788140       0.00000000
Si       2.71365336       0.00096111      -2.71452139       0.00000000
Si      -0.00151497      -2.71391400      -2.71441864       0.00000000
Si       2.71378368       2.71578735       0.00424695       0.00000000
Si      -2.71757925      -2.71280628       0.00469220       0.00000000
Si      -0.00164529       2.71625976      -2.71455564       0.00000000
