10
Lattice="16.28999089631971 0.0 0.0 0.0 16.28999089631971 0.0 0.0 0.0 34.24959146834617" Properties=species:S:1:pos:R:3:initial_magmoms:R:1 pbc="T T T"
Si       1.18244223      -1.02187170       1.74320243       0.00000000
Si       0.46240794       2.27165679       0.40099444       0.00000000
Si      -2.23919082      -0.79656471      -0.15689747       0.00000000
Si       1.10180673      -0.28611756      -2.28811374       0.00000000
Si       2.81118159       1.87532109       0.54885001       0.00000000
Si      -0.18451683      -2.77604406       2.20766140       0.00000000
Si       2.96500806       1.13148711      -1.75532679       0.00000000
Si      -0.59808735       2.64290589       2.49535813       0.00000000
Si      -3.52997784       0.96174531       0.62601438       0.00000000
Si      -2.41072452      -2.42093835       1.58572272       0.00000000
