10
Lattice="16.28999089631971 0.0 0.0 0.0 16.28999089631971 0.0 0.0 0.0 34.24959146834617" Properties=species:S:1:pos:R:3:initial_magmoms:R:1 pbc="T T T"
Si       1.15566147       1.37331216      -1.45896491       0.00000000
Si      -1.94777901       1.18081323       0.53744489       0.00000000
Si       1.08282888       0.48224916       2.05048994       0.00000000
Si      -0.15982119      -2.20522617      -0.97385343       0.00000000
Si      -0.39433203      -0.94929975       3.22069638       0.00000000
Si      -0.54758835      -1.35290079      -3.09979526       0.00000000
Si      -2.52667674      -0.14304249       2.40168544       0.00000000
Si       0.81937071       0.40127157      -3.56425423       0.00000000
Si       0.46033911       3.59420931      -1.03005704       0.00000000
Si      -1.24823754       3.48400746       0.71187816       0.00000000
