10
Lattice="16.28999089631971 0.0 0.0 0.0 16.28999089631971 0.0 0.0 0.0 34.24959146834617" Properties=species:S:1:pos:R:3:initial_magmoms:R:1 pbc="T T T"
Si      -2.10377205      -0.00798210      -1.10170722       0.00000000
Si       1.41095835       1.69424145      -0.97868262       0.00000000
Si       0.81160038      -2.27618541      -0.52443004       0.00000000
Si      -0.23366376       0.38654541       2.52063434       0.00000000
Si       1.47492918      -1.29981168       2.72861343       0.00000000
Si      -2.32510428       2.37138417      -0.79164550       0.00000000
Si      -0.28896831       3.29398461      -1.40306955       0.00000000
Si       2.62498689       1.01569779      -2.88672843       0.00000000
Si      -3.74542938      -1.55214378       0.01688506       0.00000000
Si      -2.30218425      -0.05128092      -3.45123051       0.00000000
