10
Lattice="16.28999089631971 0.0 0.0 0.0 16.28999089631971 0.0 0.0 0.0 34.24959146834617" Properties=species:S:1:pos:R:3:initial_magmoms:R:1 pbc="T T T"
Si      -1.35518139       1.35685926      -1.36286051       0.00000000
Si       1.35948195      -1.36171368      -1.36193577       0.00000000
Si      -1.35071793      -1.35726651       1.37556711       0.00000000
Si       1.35075051       1.36585134       1.38525975       0.00000000
Si      -2.71107954       2.70967474      -0.00582243       0.00000000
Si       2.71254564       2.71397698       0.00099324       0.00000000
Si       0.00143352       2.71235977      -2.71955608       0.00000000
Si      -2.71322982      -0.00193851      -2.71931633       0.00000000
Si      -2.71608057      -2.71730232      -0.00301397       0.00000000
Si       2.71650411      -0.00247608      -2.71993283       0.00000000
