10
Lattice="16.28999089631971 0.0 0.0 0.0 16.28999089631971 0.0 0.0 0.0 34.24959146834617" Properties=species:S:1:pos:R:3:initial_magmoms:R:1 pbc="T T T"
Si       0.47346885      -2.01448656       1.06814261       0.00000000
Si       0.63998523      -0.66762936      -2.13854569       0.00000000
Si       1.47618351       1.61952315       0.81370225       0.00000000
Si      -2.18325096       0.27495891       1.03721521       0.00000000
Si       0.31964238      -1.27065258       3.37231941       0.00000000
Si       1.53754794       0.75626325       3.25419250       0.00000000
Si      -1.38973248      -3.43209123       0.53535566       0.00000000
Si       2.79500562      -2.45926872       0.38448613       0.00000000
Si      -1.17434610      -1.72167381      -3.18952924       0.00000000
Si       1.64506194       1.06695120      -3.29101083       0.00000000
