10
Lattice="16.28999089631971 0.0 0.0 0.0 16.28999089631971 0.0 0.0 0.0 34.24959146834617" Properties=species:S:1:pos:R:3:initial_magmoms:R:1 pbc="T T T"
Si      -2.10225708       0.63034155       0.80668108       0.00000000
Si      -1.20418938      -1.34340372      -1.52903962       0.00000000
Si       1.41726258       1.33284780      -1.50838710       0.00000000
Si       1.20187620      -0.37756962       2.21649780       0.00000000
Si      -2.45586411      -2.64769515      -0.00335646       0.00000000
Si      -1.72504584       2.66126472       1.82413426       0.00000000
Si      -3.08055303      -1.12612770       1.97476405       0.00000000
Si       2.31438546      -2.44289727       1.96133820       0.00000000
Si      -2.65478130      -0.01400940      -2.90597671       0.00000000
Si       0.04668714       2.70910845      -2.89628407       0.00000000
