10
Lattice="16.28999089631971 0.0 0.0 0.0 16.28999089631971 0.0 0.0 0.0 34.24959146834617" Properties=species:S:1:pos:R:3:initial_magmoms:R:1 pbc="T T T"
Si       2.01292272      -1.22137533      -0.04640822       0.00000000
Si      -0.54094203      -0.43991145      -2.27102318       0.00000000
Si       0.08974161       2.33088790       0.46151350       0.00000000
Si      -1.22031648      -1.09141371       1.77536282       0.00000000
Si       2.32617942      -1.52795313       2.28595601       0.00000000
Si      -3.29909967       1.43746218      -0.67732030       0.00000000
Si      -2.14589799       1.24444197      -2.73496841       0.00000000
Si      -2.17103346       2.88883669       0.95378316       0.00000000
Si       0.53758629       3.37454585      -1.65042024       0.00000000
Si       0.29004345      -2.45055357       2.89738006       0.00000000
