10
Lattice="16.28999089631971 0.0 0.0 0.0 16.28999089631971 0.0 0.0 0.0 34.24959146834617" Properties=species:S:1:pos:R:3:initial_magmoms:R:1 pbc="T T T"
Si      -1.23300639       1.41053481      -1.39156168       0.00000000
Si       1.51166869      -1.31234195      -1.38686948       0.00000000
Si       1.28882149       1.44114372       1.50646912       0.00000000
Si      -1.35881406      -1.43297754       1.61706112       0.00000000
Si       1.91061242      -0.58775949       2.85813001       0.00000000
Si      -2.45742795      -2.61190814      -0.09096697       0.00000000
Si       0.43103733      -2.52382843       2.58933906       0.00000000
Si      -2.56960089       0.04318479      -2.76521081       0.00000000
Si      -2.67494832       2.76925113       0.20899112       0.00000000
Si       0.15126894      -2.68254738      -2.76777953       0.00000000
