10
Lattice="16.28999089631971 0.0 0.0 0.0 16.28999089631971 0.0 0.0 0.0 34.24959146834617" Properties=species:S:1:pos:R:3:initial_magmoms:R:1 pbc="T T T"
Si       1.78985139      -1.09085089       0.97227795       0.00000000
Si      -1.09861389      -1.17893059      -1.70802808       0.00000000
Si       1.35881406       1.43297754      -1.61706112       0.00000000
Si      -1.26749232      -0.62635864       2.39668500       0.00000000
Si      -1.94180058       1.62119220       2.52405930       0.00000000
Si       3.26942648       0.84521805       1.24106889       0.00000000
Si      -2.10369060      -2.91351115      -0.55556293       0.00000000
Si      -2.74367583      -2.24588179       1.58298275       0.00000000
Si       2.98955450      -2.46011158      -0.46356848       0.00000000
Si       2.64763555       2.87412126      -0.11059199       0.00000000
