10
Lattice="16.28999089631971 0.0 0.0 0.0 16.28999089631971 0.0 0.0 0.0 34.24959146834617" Properties=species:S:1:pos:R:3:initial_magmoms:R:1 pbc="T T T"
Si      -1.68252894      -1.20771454       1.20273129       0.00000000
Si       1.08224244       1.63924641       1.40079678       0.00000000
Si      -0.24285132       1.27329156      -2.08080084       0.00000000
Si       2.16547857       1.82508273      -2.29328543       0.00000000
Si       2.34545502       0.24161328       2.80924010       0.00000000
Si      -0.37110249      -2.45570554       2.79984200       0.00000000
Si       3.03905330       2.34494550       0.03568809       0.00000000
Si      -1.15668774       3.41573607      -1.40649451       0.00000000
Si      -2.33660502      -3.20793173      -0.27516137       0.00000000
Si       2.78245159      -2.93166962       0.17402574       0.00000000
