10
Lattice="16.28999089631971 0.0 0.0 0.0 16.28999089631971 0.0 0.0 0.0 34.24959146834617" Properties=species:S:1:pos:R:3:initial_magmoms:R:1 pbc="T T T"
Si       1.69249842      -0.53654373      -1.56572095       0.00000000
Si      -1.62447138       1.44114372      -0.97412742       0.00000000
Si      -1.57024197      -1.82528961       0.06541676       0.00000000
Si       1.45847628       0.93411747       1.70518536       0.00000000
Si      -3.53937717       1.14456798       0.40133694       0.00000000
Si      -0.76711239       3.63239307      -1.10379645       0.00000000
Si      -0.50852493      -3.72368942       1.00149286       0.00000000
Si       0.54463986       3.07656198       2.37949170       0.00000000
Si      -3.46198338      -0.89265942       1.69631471       0.00000000
Si       3.17457891      -2.23056201      -0.84743812       0.00000000
