10
Lattice="16.28999089631971 0.0 0.0 0.0 16.28999089631971 0.0 0.0 0.0 34.24959146834617" Properties=species:S:1:pos:R:3:initial_magmoms:R:1 pbc="T T T"
Si       1.35783666       1.35640314       1.35621608       0.00000000
Si      -1.35769005      -1.35694071       1.35645583       0.00000000
Si      -1.35734796       1.35738054      -1.35724357       0.00000000
Si       1.35814617      -1.35793440      -1.35738057       0.00000000
Si      -0.00276930      -2.70914103       2.71705586       0.00000000
Si      -2.71393029      -0.00144981       2.71417889       0.00000000
Si       0.00206883      -2.71471221      -2.71404189       0.00000000
Si      -2.71480995       0.00272043      -2.71469264       0.00000000
Si      -2.71495656      -2.71456560       0.00013700       0.00000000
Si      -2.71469592       2.71489140      -0.00017125       0.00000000
