10
Lattice="16.28999089631971 0.0 0.0 0.0 16.28999089631971 0.0 0.0 0.0 34.24959146834617" Properties=species:S:1:pos:R:3:initial_magmoms:R:1 pbc="T T T"
Si      -1.35783666      -1.35640314      -1.35621608       0.00000000
Si       1.35799904      -1.35462753       1.35984654       0.00000000
Si       1.35776339       1.35845568      -1.35638733       0.00000000
Si      -1.35646830       1.35612621       1.36197002       0.00000000
Si       0.00030951      -2.71433754      -2.71359665       0.00000000
Si      -2.71518462       0.00097740      -2.71345965       0.00000000
Si       2.71563327      -2.71319724       0.00034250       0.00000000
Si      -2.71552671      -2.71334385       0.00023975       0.00000000
Si       2.71549317       0.00076563      -2.71369940       0.00000000
Si      -0.00042354       2.71666701      -2.71349390       0.00000000
