10
Lattice="16.28999089631971 0.0 0.0 0.0 16.28999089631971 0.0 0.0 0.0 34.24959146834617" Properties=species:S:1:pos:R:3:initial_magmoms:R:1 pbc="T T T"
Si      -2.13506514      -0.33052410       0.91083414       0.00000000
Si       0.72990603       1.73532483       1.44755979       0.00000000
Si      -0.39861630       0.77981859      -2.20975063       0.00000000
Si       0.95966019      -2.15451540       0.42106471       0.00000000
Si       2.89988064       1.05213852      -1.34056401       0.00000000
Si       1.66343706       0.31842063      -3.23573196       0.00000000
Si      -2.61935055      -2.56621257       0.18840711       0.00000000
Si       0.13307301       3.68777907       0.19248281       0.00000000
Si      -1.73887605      -0.05103657       3.28255118       0.00000000
Si       1.57809375      -2.02872402       2.69095766       0.00000000
