10
Lattice="16.28999089631971 0.0 0.0 0.0 16.28999089631971 0.0 0.0 0.0 34.24959146834617" Properties=species:S:1:pos:R:3:initial_magmoms:R:1 pbc="T T T"
Si      -1.35575154       1.35702216       1.36265501       0.00000000
Si       1.35972630      -1.35998694       1.36159327       0.00000000
Si      -1.37953494      -1.35785295      -1.35758607       0.00000000
Si       1.37417553       1.36181142      -1.36511755       0.00000000
Si      -0.05071077      -2.64660372      -2.76770418       0.00000000
Si      -2.71451673       2.71337643       0.00239747       0.00000000
Si       2.71549413       2.71419093       0.00739792       0.00000000
Si      -2.71450044      -2.71661814       0.00681567       0.00000000
Si       2.71593396      -2.71585251       0.00212348       0.00000000
Si      -2.71331127      -0.00190593       2.71941908       0.00000000
