10
Lattice="16.28999089631971 0.0 0.0 0.0 16.28999089631971 0.0 0.0 0.0 34.24959146834617" Properties=species:S:1:pos:R:3:initial_magmoms:R:1 pbc="T T T"
Si       1.33814205      -1.37671677       1.29528602       0.00000000
Si       1.35962856       1.32693453      -1.36032603       0.00000000
Si      -1.35237951      -1.39196421      -1.35583934       0.00000000
Si      -1.37272572       1.32893820       1.47900093       0.00000000
Si      -0.31644954      -2.30190732       2.70150654       0.00000000
Si      -2.22166278      -0.44302284       2.81346851       0.00000000
Si       2.70658091       2.66997987       0.01530958       0.00000000
Si      -2.71982727       2.66618430       0.01154212       0.00000000
Si       0.00491958       2.68276752      -2.71688461       0.00000000
Si      -2.71262709      -0.03126051      -2.71619962       0.00000000
