10
Lattice="16.28999089631971 0.0 0.0 0.0 16.28999089631971 0.0 0.0 0.0 34.24959146834617" Properties=species:S:1:pos:R:3:initial_magmoms:R:1 pbc="T T T"
Si      -0.84893706      -1.77196104       1.33446758       0.00000000
Si      -1.34710155       1.33724610      -1.46745882       0.00000000
Si       1.37272572      -1.32893820      -1.47900093       0.00000000
Si       0.85990023       2.05115535       1.19222895       0.00000000
Si      -2.62677879      -2.75252130      -0.07284892       0.00000000
Si      -2.69102655       2.70370017      -0.06024507       0.00000000
Si       2.71086777      -2.70565497      -0.18371491       0.00000000
Si       2.73105108       2.72865645      -0.08219907       0.00000000
Si      -2.69420310      -0.00462636      -2.83877898       0.00000000
Si       0.01958058       2.71116099      -2.83453202       0.00000000
