10
Lattice="16.28999089631971 0.0 0.0 0.0 16.28999089631971 0.0 0.0 0.0 34.24959146834617" Properties=species:S:1:pos:R:3:initial_magmoms:R:1 pbc="T T T"
Si       1.34189977      -1.33833753       1.37068312       0.00000000
Si      -1.48753764      -1.02726369      -1.53475044       0.00000000
Si       1.78244107       0.92243754      -1.27417593       0.00000000
Si      -1.37111301       1.39840161       1.35164033       0.00000000
Si       2.65160868      -2.65883751      -0.09596398       0.00000000
Si      -2.68253946       2.64639262      -0.24547038       0.00000000
Si      -2.61210150      -2.74618449      -0.17722461       0.00000000
Si      -3.33661554       0.64617543      -1.72336304       0.00000000
Si       2.72311038       2.68177776      -0.03845546       0.00000000
Si      -0.01596420      -2.68060095       2.73167017       0.00000000
