10
Lattice="16.28999089631971 0.0 0.0 0.0 16.28999089631971 0.0 0.0 0.0 34.24959146834617" Properties=species:S:1:pos:R:3:initial_magmoms:R:1 pbc="T T T"
Si      -0.41842494       0.08505009      -2.32154136       0.00000000
Si       0.32767335      -2.27616912       0.54823352       0.00000000
Si      -2.32153677       0.44478216       0.68365648       0.00000000
Si       1.59153302       1.88605620       0.70954918       0.00000000
Si       1.75740985      -1.70246790       2.30643728       0.00000000
Si       2.71017123      -2.37988755      -0.26269451       0.00000000
Si       0.98095122       0.11759751       3.58911944       0.00000000
Si      -2.79500562       2.45926872      -0.38448613       0.00000000
Si      -2.15502039       1.79163936      -2.52303182       0.00000000
Si       0.95519673       2.39420646       2.88309797       0.00000000
