10
Lattice="16.28999089631971 0.0 0.0 0.0 16.28999089631971 0.0 0.0 0.0 34.24959146834617" Properties=species:S:1:pos:R:3:initial_magmoms:R:1 pbc="T T T"
Si       0.53123060      -0.30232611      -2.28342154       0.00000000
Si      -1.24379037       2.02417911       0.09028197       0.00000000
Si      -1.56424725      -1.76220333       0.45010838       0.00000000
Si       2.07085715       0.04370607       1.25709771       0.00000000
Si       0.65834473       3.28220694      -0.62279492       0.00000000
Si      -0.13323591      -3.53406663       0.93186341       0.00000000
Si      -1.37551131      -1.55400084      -3.09818553       0.00000000
Si      -2.77827579      -1.08365967       2.35815419       0.00000000
Si       1.34006494       0.26573877       3.68721033       0.00000000
Si      -1.20471066       0.65533041       3.69179978       0.00000000
