10
Lattice="16.28999089631971 0.0 0.0 0.0 16.28999089631971 0.0 0.0 0.0 34.24959146834617" Properties=species:S:1:pos:R:3:initial_magmoms:R:1 pbc="T T T"
Si      -1.17192866       1.96763652      -0.04993593       0.00000000
Si      -1.90175066      -1.35176049      -0.30012934       0.00000000
Si       0.73557495      -1.02488535       1.98716241       0.00000000
Si       1.60153506       0.53478441      -1.71809747       0.00000000
Si      -0.71267447      -0.76629789      -2.80620760       0.00000000
Si       2.89080711      -1.31263191      -0.95943434       0.00000000
Si      -0.75638542      -3.05592255      -1.39361666       0.00000000
Si      -1.95433478       1.77508872      -2.25646710       0.00000000
Si       2.97813780      -1.17501399       1.45646469       0.00000000
Si       1.89890901       2.90892159      -1.04927107       0.00000000
