10
Lattice="16.28999089631971 0.0 0.0 0.0 16.28999089631971 0.0 0.0 0.0 34.24959146834617" Properties=species:S:1:pos:R:3:initial_magmoms:R:1 pbc="T T T"
Si      -0.57514356      -2.22601221       0.08267856       0.00000000
Si      -1.76037138       0.73246356      -1.35857930       0.00000000
Si       2.01714020       0.80303184      -1.07807499       0.00000000
Si       0.29843117      -1.70614944       2.41165208       0.00000000
Si       1.27832354       2.93430141      -1.55075387       0.00000000
Si      -1.46711880      -0.57749679      -3.28090720       0.00000000
Si      -0.81333594       2.55138867      -2.54382133       0.00000000
Si       0.67365340      -3.15674136      -1.81711309       0.00000000
Si       2.34689867       1.83518253       2.28989472       0.00000000
Si       1.00559310       0.27603405       3.72537608       0.00000000
