10
Lattice="16.28999089631971 0.0 0.0 0.0 16.28999089631971 0.0 0.0 0.0 34.24959146834617" Properties=species:S:1:pos:R:3:initial_magmoms:R:1 pbc="T T T"
Si       1.35771449       1.35685926      -1.35789431       0.00000000
Si      -1.35918777       1.35837423       1.35570234       0.00000000
Si      -1.35696415      -1.35819504      -1.35816831       0.00000000
Si       1.35898510      -1.35848826       1.35888755       0.00000000
Si      -2.71389675       2.71420722      -0.00085624       0.00000000
Si       2.71568147       2.71401174      -0.00047949       0.00000000
Si       0.00004398       2.71446786      -2.71534338       0.00000000
Si      -2.71515108       0.00001629      -2.71527488       0.00000000
Si       2.71564889      -0.00084708      -2.71517213       0.00000000
Si       2.71519276      -2.71590138      -0.00047949       0.00000000
