10
Lattice="16.28999089631971 0.0 0.0 0.0 16.28999089631971 0.0 0.0 0.0 34.24959146834617" Properties=species:S:1:pos:R:3:initial_magmoms:R:1 pbc="T T T"
Si      -1.33686491      -1.81490148      -0.39479526       0.00000000
Si       0.45717885       0.33544368       2.27359190       0.00000000
Si       1.73397276      -0.87361641      -1.39413040       0.00000000
Si      -1.13092185       2.04553530      -0.58125014       0.00000000
Si       0.87907356       2.94257673      -1.37070367       0.00000000
Si       1.84267593       1.18193724      -2.64588517       0.00000000
Si      -1.75555049       1.23668793       2.76658080       0.00000000
Si       2.27080971       1.89063369       2.23067714       0.00000000
Si      -0.16493625      -3.78253800      -0.34485933       0.00000000
Si       3.71815992      -1.11783609      -0.15258202       0.00000000
