10
Lattice="16.28999089631971 0.0 0.0 0.0 16.28999089631971 0.0 0.0 0.0 34.24959146834617" Properties=species:S:1:pos:R:3:initial_magmoms:R:1 pbc="T T T"
Si       0.94066931       1.75934022       1.23572047       0.00000000
Si      -1.78244107      -0.92243754       1.27417593       0.00000000
Si       1.78918120      -1.78326630      -0.24142897       0.00000000
Si      -0.44054130      -2.26077507       2.64485905       0.00000000
Si       2.29066885       0.46604061       2.64292395       0.00000000
Si      -3.26997871      -1.94970123      -0.26057450       0.00000000
Si       0.61813545      -2.95603227      -2.33846413       0.00000000
Si       0.86916761      -3.58127505       1.17821195       0.00000000
Si       3.56325994      -0.92955627       1.21837304       0.00000000
Si       1.94243752       3.39091730      -0.21848173       0.00000000
