10
Lattice="16.28999089631971 0.0 0.0 0.0 16.28999089631971 0.0 0.0 0.0 34.24959146834617" Properties=species:S:1:pos:R:3:initial_magmoms:R:1 pbc="T T T"
Si      -1.34189977       1.33833753      -1.37068312       0.00000000
Si      -1.35786397      -1.34226342       1.36098705       0.00000000
Si       1.35824496       1.37253024       1.35437688       0.00000000
Si       1.30970891      -1.32049998      -1.46664710       0.00000000
Si       0.44054130       2.26077507      -2.64485905       0.00000000
Si       2.22972250       0.47750877      -2.88628802       0.00000000
Si       2.70711724      -2.68330509      -0.01172022       0.00000000
Si      -2.69918257      -2.69464293      -0.01152842       0.00000000
Si       0.00047461      -2.69925300       2.71638114       0.00000000
Si      -2.71280101       0.01384650       2.71727163       0.00000000
