10
Lattice="16.28999089631971 0.0 0.0 0.0 16.28999089631971 0.0 0.0 0.0 34.24959146834617" Properties=species:S:1:pos:R:3:initial_magmoms:R:1 pbc="T T T"
Si      -0.73297832       1.78025265      -1.19565391       0.00000000
Si       1.70893503      -1.17532350      -0.95998234       0.00000000
Si       0.19003914       0.83046420       2.12275662       0.00000000
Si       0.21131388      -1.41529149       2.74466105       0.00000000
Si      -0.96103181      -2.84467383       0.97268894       0.00000000
Si      -2.07967002       1.42126992       1.94493264       0.00000000
Si      -2.21847713       0.29776491      -2.36058591       0.00000000
Si       0.40853691      -2.52506403      -2.34527634       0.00000000
Si      -1.93268144       3.14951334       0.24019252       0.00000000
Si       2.11191705      -3.25874934       0.35129826       0.00000000
