10
Lattice="16.28999089631971 0.0 0.0 0.0 16.28999089631971 0.0 0.0 0.0 34.24959146834617" Properties=species:S:1:pos:R:3:initial_magmoms:R:1 pbc="T T T"
Si       2.17039815       0.86208309      -0.32064485       0.00000000
Si      -0.96360237       1.76063949       1.27518150       0.00000000
Si      -1.42055316      -0.36346248      -1.87636492       0.00000000
Si      -0.10870317      -2.05555365       1.25175477       0.00000000
Si      -1.84267593      -1.18193724       2.64588517       0.00000000
Si      -1.44182790       1.88229321      -2.49826935       0.00000000
Si      -2.97359778       0.86359806       2.06463503       0.00000000
Si       3.46118517      -0.89622693      -1.10355670       0.00000000
Si       2.93617476       1.44414108       1.82238753       0.00000000
Si      -0.55677591       3.72061971      -0.03918155       0.00000000
