10
Lattice="10.86 0.0 0.0 0.0 10.86 0.0 0.0 0.0 10.86" Properties=species:S:1:pos:R:3:initial_magmoms:R:1 pbc="T T T"
Si      -1.35750000      -1.35750000       1.35750000       0.00000000
Si       1.35750000       1.35750000       1.35750000       0.00000000
Si      -1.35750000       1.35750000      -1.35750000       0.00000000
Si       1.35750000      -1.35750000      -1.35750000       0.00000000
Si      -2.64174930       2.64536568       0.09640422       0.00000000
Si      -0.04562286      -2.66267652      -2.67467682       0.00000000
Si      -2.63616726      -2.70748488       0.00258468       0.00000000
Si       0.00000000       2.71500000       2.71500000       0.00000000
Si       2.71500000      -2.71500000       0.00000000       0.00000000
Si      -2.71500000       0.00000000      -2.71500000       0.00000000
