10
Lattice="10.86 0.0 0.0 0.0 10.86 0.0 0.0 0.0 10.86" Properties=species:S:1:pos:R:3:initial_magmoms:R:1 pbc="T T T"
Si       1.40814018       1.47965328       1.20105084       0.00000000
Si       1.40814018      -1.23534672      -1.51394916       0.00000000
Si      -1.30685982       1.47965328      -1.51394916       0.00000000
Si      -2.17327062       0.55942032       2.43085896       0.00000000
Si       0.02450016      -2.39873508       2.52571020       0.00000000
Si       2.76564018       0.12215328       2.55855084       0.00000000
Si       2.76564018      -2.59284672      -0.15644916       0.00000000
Si      -2.74329030      -2.64816756      -0.12710544       0.00000000
Si       0.05064018      -2.59284672      -2.87144916       0.00000000
Si       0.00501732       2.88947676       2.59887402       0.00000000
