10
Lattice="10.86 0.0 0.0 0.0 10.86 0.0 0.0 0.0 10.86" Properties=species:S:1:pos:R:3:initial_magmoms:R:1 pbc="T T T"
Si      -1.31187714       1.30517652      -1.39782318       0.00000000
Si       1.40312286       1.30517652       1.31717682       0.00000000
Si       1.40312286      -1.40982348      -1.39782318       0.00000000
Si      -2.17828794      -2.33005644      -0.16801506       0.00000000
Si      -0.02706312      -2.63921892       2.44952730       0.00000000
Si      -2.59054440      -0.04480836       2.67726150       0.00000000
Si      -2.66937714       2.66267652      -0.04032318       0.00000000
Si       0.04562286       2.66267652       2.67467682       0.00000000
Si      -2.73516702       0.00362724      -2.65725738       0.00000000
Si       0.04562286       2.66267652      -2.75532318       0.00000000
