10
Lattice="16.290000149 0.0 0.0 0.0 16.290000149 0.0 0.0 0.0 29.1751946751" Properties=species:S:1:pos:R:3:initial_magmoms:R:1 pbc="T T T"
Si      -1.34573320      -1.32908482       1.38144547       0.00000000
Si       1.36239787       1.36767583       1.36347355       0.00000000
Si      -1.38553456       1.33985251      -1.37214442       0.00000000
Si       1.38445453      -1.37148769      -1.35082318       0.00000000
Si       2.68504814       0.11225439      -2.62413313       0.00000000
Si      -2.67690314      -2.68933241       0.00267245       0.00000000
Si      -2.60604344      -0.14946075      -2.77079741       0.00000000
Si      -0.04004082       2.80188003      -2.60576034       0.00000000
Si      -2.70029558       0.05953995       2.71154259       0.00000000
Si       0.02365308      -2.67776651       2.74535664       0.00000000
