10
Lattice="16.290000149 0.0 0.0 0.0 16.290000149 0.0 0.0 0.0 29.1751946751" Properties=species:S:1:pos:R:3:initial_magmoms:R:1 pbc="T T T"
Si      -1.33581259      -1.36358053       1.36954199       0.00000000
Si       1.34988715      -1.34891790      -1.37429755       0.00000000
Si       1.36045936       1.34589610       1.36738302       0.00000000
Si      -1.36862065       1.34472322      -1.36420293       0.00000000
Si      -2.69703758      -2.70629030      -0.00860668       0.00000000
Si       2.71410950       2.69364926      -0.00682700       0.00000000
Si      -0.01008351       2.73282672       2.67828287       0.00000000
Si       2.72385092      -2.69565293      -0.03819033       0.00000000
Si      -0.01870092       2.70956459      -2.72082031       0.00000000
Si      -2.76156228      -0.00268785       2.66903433       0.00000000
