10
Lattice="16.290000149 0.0 0.0 0.0 16.290000149 0.0 0.0 0.0 29.1751946751" Properties=species:S:1:pos:R:3:initial_magmoms:R:1 pbc="T T T"
Si      -1.36718713      -1.35843940      -1.32907599       0.00000000
Si      -1.43861878       1.33480261       1.28076187       0.00000000
Si       1.35378046       1.35149986      -1.36186891       0.00000000
Si       1.36256077      -1.32686938       1.38051186       0.00000000
Si      -0.08990451       2.67833666       2.59390821       0.00000000
Si      -0.09560601      -2.62440047       2.68344688       0.00000000
Si       0.00402363      -2.71497287      -2.66197394       0.00000000
Si      -2.71028135       0.02493999      -2.67268123       0.00000000
Si       2.73228914      -0.01457955      -2.67399412       0.00000000
Si       2.73051353       2.69182478      -0.02894179       0.00000000
