10
Lattice="16.290000149 0.0 0.0 0.0 16.290000149 0.0 0.0 0.0 29.1751946751" Properties=species:S:1:pos:R:3:initial_magmoms:R:1 pbc="T T T"
Si      -1.39711186       1.42516324      -1.22559158       0.00000000
Si      -1.32667390      -1.38267892       1.37575922       0.00000000
Si       1.19876482      -1.47328390      -1.42873846       0.00000000
Si       1.30896667       1.44700813       1.36914812       0.00000000
H        3.22126608       1.73035640      -0.50907797       0.00000000
Si      -0.00193851       2.65761578      -2.65354231       0.00000000
Si       2.67100616      -2.68268609       0.02520737       0.00000000
Si       2.52915284      -0.14105511      -2.82728059       0.00000000
Si      -2.90229159       0.13864419      -2.50973777       0.00000000
Si       2.73557973       0.07938117       2.70413501       0.00000000
