10
Lattice="16.290000149 0.0 0.0 0.0 16.290000149 0.0 0.0 0.0 29.1751946751" Properties=species:S:1:pos:R:3:initial_magmoms:R:1 pbc="T T T"
Si       1.34656888      -1.33610581       1.37671909       0.00000000
Si      -1.27180267       1.35954712       1.42433300       0.00000000
Si       1.34298508       1.36691020      -1.36245242       0.00000000
Si      -1.37910653      -1.35995437      -1.33575711       0.00000000
Si       2.65972208       0.13079241       2.65876467       0.00000000
Si      -2.66288886       2.71495658       0.07387159       0.00000000
Si       0.01718758      -2.70037378      -2.68108369       0.00000000
Si      -0.07582669      -2.62642043       2.75866053       0.00000000
Si      -2.68374006       0.01909188      -2.70944198       0.00000000
Si       2.72084216       0.01943397      -2.71825289       0.00000000
