10
Lattice="16.290000149 0.0 0.0 0.0 16.290000149 0.0 0.0 0.0 29.1751946751" Properties=species:S:1:pos:R:3:initial_magmoms:R:1 pbc="T T T"
Si       1.35627283       1.34035750      -1.31524112       0.00000000
Si       1.43294986      -1.31984839       1.28303754       0.00000000
Si      -1.33633387       1.44116002       1.28913515       0.00000000
Si      -1.30474756      -1.29529936      -1.47536334       0.00000000
Si      -0.04955418       2.70444953      -2.56901885       0.00000000
Si       0.05263299      -2.63764424       2.64651108       0.00000000
Si      -2.67208130      -2.64539828      -0.12498653       0.00000000
Si      -2.70013268       0.07952778       2.61882382       0.00000000
Si       2.77928580      -2.59897178      -0.17779364       0.00000000
Si       2.76827376       0.08449623       2.62153712       0.00000000
