10
Lattice="16.290000149 0.0 0.0 0.0 16.290000149 0.0 0.0 0.0 29.1751946751" Properties=species:S:1:pos:R:3:initial_magmoms:R:1 pbc="T T T"
Si       1.35350353      -1.36712197       1.33861628       0.00000000
Si      -1.35545833      -1.36704052      -1.33861628       0.00000000
Si       1.37523439       1.33682257      -1.36172304       0.00000000
Si      -1.37785708       1.34747623       1.35580047       0.00000000
Si       2.64681551       0.07086150       2.65079984       0.00000000
Si       0.02870298      -2.72234573      -2.67259371       0.00000000
Si      -2.68391110      -0.00588069      -2.71200940       0.00000000
Si      -2.70718463       2.70855461      -0.00685617       0.00000000
Si      -2.70365458      -2.71980775       0.03716920       0.00000000
Si       0.03214017       2.72020196      -2.70532828       0.00000000
