10
Lattice="16.290000149 0.0 0.0 0.0 16.290000149 0.0 0.0 0.0 29.1751946751" Properties=species:S:1:pos:R:3:initial_magmoms:R:1 pbc="T T T"
Si       1.34573320       1.32908482      -1.38144547       0.00000000
Si      -1.33116994      -1.36024759      -1.37877302       0.00000000
Si      -1.35456238       1.38862477       1.33009713       0.00000000
Si       1.36938628      -1.34868169       1.36391118       0.00000000
Si      -2.62653446      -2.67444335       0.09079321       0.00000000
Si       2.70813107       2.69676065      -0.01797192       0.00000000
Si      -2.69544116       0.03552849       2.71556877       0.00000000
Si      -0.03980136       2.66893733      -2.75358988       0.00000000
Si       0.00976097       2.71844264       2.70952950       0.00000000
Si       2.72945469       0.00563634       2.71775691       0.00000000
