10
Lattice="16.290000149 0.0 0.0 0.0 16.290000149 0.0 0.0 0.0 29.1751946751" Properties=species:S:1:pos:R:3:initial_magmoms:R:1 pbc="T T T"
Si       0.65353852      -0.42375177       2.13141135       0.00000000
Si      -1.07173540      -1.75938518      -1.06337750       0.00000000
Si      -1.70140907       1.59765805      -0.01566708       0.00000000
Si       1.78634513       0.58808530      -1.44116709       0.00000000
Si      -0.30822309       3.03301884      -1.19218598       0.00000000
H        3.08353413       1.13818231      -0.52051465       0.00000000
H       -0.55912168      -3.04262994       1.33146836       0.00000000
Si      -1.99778933      -0.71550568      -2.89776786       0.00000000
Si      -1.25419969      -1.21401226       3.25345433       0.00000000
Si       0.76300732       1.92332774      -3.05936926       0.00000000
