10
Lattice="16.290000149 0.0 0.0 0.0 16.290000149 0.0 0.0 0.0 29.1751946751" Properties=species:S:1:pos:R:3:initial_magmoms:R:1 pbc="T T T"
Si       1.37487601       1.34268697      -1.34226318       0.00000000
Si       1.36203949      -1.39483126       1.30471471       0.00000000
Si      -1.35472528      -1.35338950      -1.36026428       0.00000000
Si      -1.35560494       1.36958176       1.34786482       0.00000000
Si       0.00576666       2.69099399      -2.68356358       0.00000000
Si       2.78254380      -0.08529444       2.61829867       0.00000000
Si      -2.74118348       0.01080027       2.66538744       0.00000000
Si       0.01257588      -2.75146248       2.65926064       0.00000000
Si       0.01469358      -2.73222398      -2.68309678       0.00000000
Si       0.01822851       2.73746937       2.68277585       0.00000000
