10
Lattice="16.290000149 0.0 0.0 0.0 16.290000149 0.0 0.0 0.0 29.1751946751" Properties=species:S:1:pos:R:3:initial_magmoms:R:1 pbc="T T T"
Si       1.39318597       1.43536078      -1.17651890       0.00000000
Si       1.70140907      -1.59765805       0.01566708       0.00000000
Si      -0.95702122       1.27057114       1.75404188       0.00000000
Si      -1.59412312      -0.81283843      -1.56133972       0.00000000
Si      -2.07202286       1.21647205      -2.62080774       0.00000000
Si      -0.17324415       2.71595027      -2.30177698       0.00000000
Si       0.62967367      -3.35704323      -1.04771042       0.00000000
Si      -2.40873716       2.68749164       0.53685276       0.00000000
Si      -0.29638026      -2.31316373      -2.88210078       0.00000000
Si       2.35494758      -2.02140983       2.14707843       0.00000000
