10
Lattice="16.290000149 0.0 0.0 0.0 16.290000149 0.0 0.0 0.0 29.1751946751" Properties=species:S:1:pos:R:3:initial_magmoms:R:1 pbc="T T T"
H       -0.90973135      -0.07123617       1.21561366       0.00000000
Si      -0.89282233       1.41978754      -1.59162357       0.00000000
Si       0.33148521      -2.12253815      -0.93048448       0.00000000
Si       1.89032420       1.33828867       0.38616288       0.00000000
H        0.98919397       0.35171739       2.45742665       0.00000000
H       -2.17891784      -1.83128924       0.79242746       0.00000000
Si       0.27383490       2.86963665       1.46611188       0.00000000
Si      -0.33089877       0.38602413      -3.60086088       0.00000000
Si      -1.72962335      -2.81507493      -1.83433201       0.00000000
Si       1.56239020      -3.44232138       0.58204513       0.00000000
