10
Lattice="16.290000149 0.0 0.0 0.0 16.290000149 0.0 0.0 0.0 29.1751946751" Properties=species:S:1:pos:R:3:initial_magmoms:R:1 pbc="T T T"
Si      -1.30285792       0.47754135      -0.60824446       0.00000000
H        0.58072222      -0.11828169      -2.33270269       0.00000000
Si       1.76735099      -0.62522650      -1.52787577       0.00000000
Si       1.08352936      -2.48360600      -0.10762729       0.00000000
Si      -2.55161675       0.72826075       1.33444423       0.00000000
Si      -2.26545032      -1.52001991      -1.48347112       0.00000000
Si       0.45849834      -2.13954491       2.21906531       0.00000000
Si      -1.32071176      -0.59152249       2.84697385       0.00000000
Si       3.05743755       1.03884589      -0.35310738       0.00000000
Si      -1.01861371       2.51012612      -1.79926343       0.00000000
