10
Lattice="16.290000149 0.0 0.0 0.0 16.290000149 0.0 0.0 0.0 29.1751946751" Properties=species:S:1:pos:R:3:initial_magmoms:R:1 pbc="T T T"
Si       0.89282233      -1.41978754       1.59162357       0.00000000
Si      -2.23278887       0.50785704      -0.32396136       0.00000000
Si       0.56192356      -1.03376341      -2.00923731       0.00000000
Si       1.24318765       1.78721501      -0.84042066       0.00000000
H       -0.01690902      -1.49102371       2.80723723       0.00000000
Si       0.60571108       1.11241968      -2.98713148       0.00000000
Si       2.78314653      -0.08149887       1.97778645       0.00000000
Si       3.30237399       1.17604190       0.04752639       0.00000000
Si       1.16665723       1.44984911       3.05773545       0.00000000
Si      -1.06570810      -2.71568963      -2.07712798       0.00000000
