10
Lattice="16.290000149 0.0 0.0 0.0 16.290000149 0.0 0.0 0.0 29.1751946751" Properties=species:S:1:pos:R:3:initial_magmoms:R:1 pbc="T T T"
Si       1.33371118       1.33982971      -1.32892428       0.00000000
Si      -1.33020883       1.41958555       1.28633433       0.00000000
Si       1.43399242      -1.34630987       1.26200222       0.00000000
Si      -1.36063855      -1.28260215      -1.41013635       0.00000000
Si       0.05419683      -2.69008827       2.59711748       0.00000000
Si      -2.67887423       0.04589382       2.62357938       0.00000000
Si       0.05528826       2.76997769       2.61126745       0.00000000
Si       2.78068674       0.04154113       2.60158128       0.00000000
Si      -2.71054199      -2.67762642      -0.09934154       0.00000000
Si      -0.03906342      -2.77121247      -2.61794565       0.00000000
