10
Lattice="16.290000149 0.0 0.0 0.0 16.290000149 0.0 0.0 0.0 29.1751946751" Properties=species:S:1:pos:R:3:initial_magmoms:R:1 pbc="T T T"
H       -0.61160806      -0.80632243       1.10962018       0.00000000
Si      -1.57853359       1.09548622      -1.30100946       0.00000000
Si       1.26280081      -1.36774099      -1.38774731       0.00000000
Si       1.24988284       1.48410046       1.27807775       0.00000000
H       -2.07414056      -1.73667692       0.58825945       0.00000000
Si      -3.16016229       1.02014497       0.50817354       0.00000000
H       -1.27215127      -2.49922811       2.21509748       0.00000000
Si       2.43783110      -0.02269197       2.66947196       0.00000000
Si      -0.26191062       2.68105709      -2.56455796       0.00000000
Si       2.60875631       0.04725729      -2.69009883       0.00000000
