10
Lattice="16.290000149 0.0 0.0 0.0 16.290000149 0.0 0.0 0.0 29.1751946751" Properties=species:S:1:pos:R:3:initial_magmoms:R:1 pbc="T T T"
H        1.27814599       0.03958470       0.82469523       0.00000000
Si      -1.37038649      -1.39341566       1.31804777       0.00000000
Si       0.62149609      -1.50984192      -1.75281652       0.00000000
Si      -0.79975430       2.25834788       0.20828171       0.00000000
Si       0.51451965       1.98853661      -1.70336457       0.00000000
Si       2.72570799       1.91130572      -0.89713724       0.00000000
Si       0.47280096      -2.56352474       2.25856852       0.00000000
H       -3.06502869       0.99176779      -1.51057488       0.00000000
Si       3.59311791      -0.16268823      -0.10214236       0.00000000
Si       2.68245803      -2.24581598      -0.91125803       0.00000000
