10
Lattice="16.290000149 0.0 0.0 0.0 16.290000149 0.0 0.0 0.0 29.1751946751" Properties=species:S:1:pos:R:3:initial_magmoms:R:1 pbc="T T T"
Si       0.84377314      -1.87414823      -1.12111521       0.00000000
Si       1.48450771       1.25395534       1.37251786       0.00000000
Si      -1.38124540       1.32193351      -1.42471228       0.00000000
Si      -1.31652523      -1.36591651       1.48186649       0.00000000
H        1.38091960      -1.61593543      -2.50612005       0.00000000
H        2.65010609       0.14411763      -2.08293385       0.00000000
Si      -0.00076563       2.55271649       2.70859590       0.00000000
Si      -2.80497513       2.49963536       0.03381405       0.00000000
H       -0.20215890      -0.78726313      -3.67878782       0.00000000
Si       2.53412129      -2.80248276       0.18975547       0.00000000
