10
Lattice="16.290000149 0.0 0.0 0.0 16.290000149 0.0 0.0 0.0 29.1751946751" Properties=species:S:1:pos:R:3:initial_magmoms:R:1 pbc="T T T"
Si      -1.30670236       1.42470712       1.30281890       0.00000000
Si       1.26488593       1.48320451      -1.32650858       0.00000000
Si       1.45171594      -1.41692050       1.21718912       0.00000000
Si      -1.37855755      -1.02850174      -1.63206039       0.00000000
Si       0.33671430      -1.47101959      -3.15766049       0.00000000
Si      -0.42546222       2.41153904      -2.63737925       0.00000000
Si       2.23549301       0.02845863      -2.83862974       0.00000000
Si      -2.22493709       0.81577063      -2.75562631       0.00000000
Si       2.40873716      -2.68749164      -0.53685276       0.00000000
Si      -2.60729597      -0.05903496       2.57612884       0.00000000
