10
Lattice="16.290000149 0.0 0.0 0.0 16.290000149 0.0 0.0 0.0 29.1751946751" Properties=species:S:1:pos:R:3:initial_magmoms:R:1 pbc="T T T"
Si      -1.68225203       1.67394413       0.25312399       0.00000000
Si       0.35924337      -0.23209992       2.36088593       0.00000000
Si       1.63590697       1.05847534      -1.43288134       0.00000000
Si      -1.07066026      -1.68717161      -1.38480062       0.00000000
H        1.89006844      -1.63211140       0.25930913       0.00000000
H        0.53926416       2.46808163       1.38033681       0.00000000
H       -1.08318727       0.05351265       2.80236497       0.00000000
Si      -2.41041503      -0.27129366      -2.75717260       0.00000000
Si       0.34881777       2.47893077      -2.78806913       0.00000000
Si      -3.54239085       0.83846260      -1.00406432       0.00000000
