10
Lattice="16.290000149 0.0 0.0 0.0 16.290000149 0.0 0.0 0.0 29.1751946751" Properties=species:S:1:pos:R:3:initial_magmoms:R:1 pbc="T T T"
Si       1.20684531      -1.28062207      -1.61052910       0.00000000
Si      -1.28685886       1.34842105      -1.49940078       0.00000000
Si      -1.42918459      -1.43125570       1.34275916       0.00000000
Si       1.31923002       1.69624514       1.14174207       0.00000000
H        2.82180498       0.22232592       0.50651055       0.00000000
H        0.18344886       2.66514176       1.43072237       0.00000000
H       -0.96814501       0.85517614       3.36031140       0.00000000
Si      -2.63397671      -2.56879488      -0.35089007       0.00000000
Si       3.43887018      -1.07912291       0.95090712       0.00000000
Si       2.58126683      -2.72582201      -0.45382015       0.00000000
