10
Lattice="16.290000149 0.0 0.0 0.0 16.290000149 0.0 0.0 0.0 29.1751946751" Properties=species:S:1:pos:R:3:initial_magmoms:R:1 pbc="T T T"
Si       1.35747178      -1.24227541       1.45688552       0.00000000
Si      -1.17081819       1.59167962       1.28601341       0.00000000
Si       1.31505262       1.42871446      -1.34675616       0.00000000
Si      -1.45910183      -1.38313504      -1.35019883       0.00000000
Si      -0.52813484       2.59882354      -2.28727691       0.00000000
Si       2.80350251      -2.43683741       0.10129628       0.00000000
Si      -1.45680494       3.41296680      -0.28880525       0.00000000
Si       0.00864347      -2.59542056      -2.68236740       0.00000000
Si      -2.64900489       0.28391841       2.65865964       0.00000000
Si       0.01197804      -2.70430292       2.69050144       0.00000000
