10
Lattice="16.290000149 0.0 0.0 0.0 16.290000149 0.0 0.0 0.0 29.1751946751" Properties=species:S:1:pos:R:3:initial_magmoms:R:1 pbc="T T T"
Si       1.37396377      -1.34673504       1.33610722       0.00000000
Si       1.36489024       1.34738664      -1.34979038       0.00000000
Si      -1.34964280      -1.37055102      -1.35095739       0.00000000
Si      -1.34988715       1.34891790       1.37429755       0.00000000
Si       0.01363473      -2.70062953       2.66664197       0.00000000
Si       0.00226431       2.71296106      -2.68554749       0.00000000
Si      -2.73189819      -0.01112281      -2.67323556       0.00000000
Si      -2.71850780       2.69364112       0.01009462       0.00000000
Si       2.72437220       2.69126278       0.01365399       0.00000000
Si       2.72766278      -0.01547550      -2.69523366       0.00000000
