10
Lattice="16.290000149 0.0 0.0 0.0 16.290000149 0.0 0.0 0.0 29.1751946751" Properties=species:S:1:pos:R:3:initial_magmoms:R:1 pbc="T T T"
H        1.30285792      -0.47754135       0.60824446       0.00000000
Si      -1.24875883       0.25071939       1.94268869       0.00000000
Si       0.28424421       2.03258477      -1.19101897       0.00000000
Si      -0.96259240      -1.99756127      -0.87522667       0.00000000
H        1.88358014      -0.59582305      -1.72445823       0.00000000
Si       3.07020891      -1.10276785      -0.91963131       0.00000000
H       -0.87535945      -2.82014112       1.70491085       0.00000000
Si      -1.91114282       2.75928168      -0.72768771       0.00000000
Si      -3.30986739      -0.44181738       1.03884116       0.00000000
H        1.08159085       0.16672815      -3.35129626       0.00000000
