10
Lattice="16.290000149 0.0 0.0 0.0 16.290000149 0.0 0.0 0.0 29.1751946751" Properties=species:S:1:pos:R:3:initial_magmoms:R:1 pbc="T T T"
Si      -1.26210034       1.42843753       1.32785793       0.00000000
Si       1.63426169      -1.18068292       1.21584911       0.00000000
Si       0.68224150       1.76616182      -1.50368953       0.00000000
Si      -1.33353199      -1.97933276      -0.48865534       0.00000000
Si       0.29859407      -2.58742217       2.56873002       0.00000000
Si       0.16577030       0.85828753      -3.59689305       0.00000000
Si      -2.58344741       0.10406052       2.69465599       0.00000000
Si      -0.40486189      -2.79347601      -2.48712700       0.00000000
Si       0.24384013       2.81396721       2.49632010       0.00000000
Si      -2.40202568       2.93105973      -0.05406164       0.00000000
