10
Lattice="16.290000149 0.0 0.0 0.0 16.290000149 0.0 0.0 0.0 29.1751946751" Properties=species:S:1:pos:R:3:initial_magmoms:R:1 pbc="T T T"
Si      -1.35422029      -1.28332621       1.37301384       0.00000000
Si       1.25752285       1.32133078       1.46468230       0.00000000
Si       1.36573732      -1.36792018      -1.34745637       0.00000000
Si      -1.42306183       1.36457422      -1.30077605       0.00000000
Si       2.41992839       2.76021021      -0.04020342       0.00000000
Si       2.71026506       0.00922014      -2.66276167       0.00000000
Si      -0.04033404      -2.69390990      -2.70637858       0.00000000
Si      -2.74958913      -2.66954006       0.06007173       0.00000000
Si      -0.11446983       2.71197551      -2.72426298       0.00000000
Si      -2.76643299       0.02078604      -2.69254954       0.00000000
