10
Lattice="16.290000149 0.0 0.0 0.0 16.290000149 0.0 0.0 0.0 29.1751946751" Properties=species:S:1:pos:R:3:initial_magmoms:R:1 pbc="T T T"
Si       1.40590846       1.32274801      -1.25167420       0.00000000
Si      -1.42544017      -1.38973249      -1.18031168       0.00000000
Si       1.29590209      -1.29220426       1.42821330       0.00000000
Si      -1.08294292       1.42079752       1.49753357       0.00000000
H        2.12915189      -0.36413037       2.25830594       0.00000000
Si      -0.53818902      -2.12015981       2.58591420       0.00000000
Si       1.04313016       2.39269151       2.17822003       0.00000000
Si      -2.13864896      -0.34108002       2.68023761       0.00000000
Si       2.62475885       2.46803276       0.36903704       0.00000000
Si       0.00926901      -2.71088408      -2.46334921       0.00000000
