10
Lattice="16.290000149 0.0 0.0 0.0 16.290000149 0.0 0.0 0.0 29.1751946751" Properties=species:S:1:pos:R:3:initial_magmoms:R:1 pbc="T T T"
Si       1.30670236      -1.42470712      -1.30281890       0.00000000
Si       1.41283171       1.29656998       1.34318162       0.00000000
Si      -1.30059361      -1.48374208       1.27330994       0.00000000
Si      -1.27905823       1.49506363      -1.33721646       0.00000000
Si       2.57158829       0.05849739      -2.62932748       0.00000000
Si      -2.68504814      -0.11225439       2.62413313       0.00000000
Si      -2.63782343       0.14833674      -2.67755407       0.00000000
Si       0.03059262       2.65323377       2.66725115       0.00000000
Si      -0.07185519      -2.45320886      -2.93487929       0.00000000
Si      -2.72508896       2.68962563       0.01837279       0.00000000
