10
Lattice="16.290000149 0.0 0.0 0.0 16.290000149 0.0 0.0 0.0 29.1751946751" Properties=species:S:1:pos:R:3:initial_magmoms:R:1 pbc="T T T"
Si      -1.56643012       1.28058949      -1.12525808       0.00000000
Si      -1.39318597      -1.43536078       1.17651890       0.00000000
Si       1.56401920       1.12340728       1.46786239       0.00000000
Si       1.07123041      -1.10969110      -1.86718328       0.00000000
Si       2.09456822      -2.44493354      -0.24898111       0.00000000
Si       0.30822309      -3.03301884       1.19218598       0.00000000
Si       0.05106915       2.31085055      -2.51939476       0.00000000
Si       1.83027926       0.76282813      -3.14730330       0.00000000
Si      -2.53703720       2.73533538       0.38686308       0.00000000
Si      -2.98730910      -2.24819921      -0.38482082       0.00000000
