10
Lattice="16.290000149 0.0 0.0 0.0 16.290000149 0.0 0.0 0.0 29.1751946751" Properties=species:S:1:pos:R:3:initial_magmoms:R:1 pbc="T T T"
H        0.83324980       0.92807389       0.83009264       0.00000000
Si      -1.29590209       1.29220426      -1.42821330       0.00000000
Si      -1.83409112      -0.82795555       1.15770090       0.00000000
Si       1.42931719      -1.44448318      -1.12350757       0.00000000
H        1.63523909       0.16552269       2.45693067       0.00000000
H        2.29578230       1.85842838       1.35145337       0.00000000
Si      -2.37884501       2.71300178       0.06932026       0.00000000
Si       2.77926951      -0.05921415      -2.47306455       0.00000000
Si       0.06985152      -2.75294487      -2.51361807       0.00000000
Si      -1.21093345      -1.23621553       3.30616224       0.00000000
