10
Lattice="16.290000149 0.0 0.0 0.0 16.290000149 0.0 0.0 0.0 29.1751946751" Properties=species:S:1:pos:R:3:initial_magmoms:R:1 pbc="T T T"
Si      -0.84637954       1.84427237      -1.12356592       0.00000000
Si       1.71527186      -0.44251785      -1.52560010       0.00000000
Si       1.37855755       1.02850174       1.63206039       0.00000000
Si      -1.39460320      -1.73771948       0.91496328       0.00000000
H        1.11470842      -0.53406765      -2.92568852       0.00000000
H       -1.99870157      -1.17561673      -2.18799372       0.00000000
Si       2.19317159      -2.47182833      -0.46613209       0.00000000
Si       0.32381262      -3.36808785       0.81118711       0.00000000
Si       2.64344348       2.51170625       0.30555181       0.00000000
Si      -2.56596824       2.60154560       0.25732522       0.00000000
