10
Lattice="16.290000149 0.0 0.0 0.0 16.290000149 0.0 0.0 0.0 29.1751946751" Properties=species:S:1:pos:R:3:initial_magmoms:R:1 pbc="T T T"
Si      -1.19689147      -0.36632952      -0.88925993       0.00000000
H        1.40432833      -2.02856114       0.45735035       0.00000000
Si      -0.35173368       1.12119184      -2.52248733       0.00000000
Si       0.07415208       2.93153214      -1.03379385       0.00000000
Si      -1.96950663      -2.47868642       0.28731732       0.00000000
Si       1.99870157       1.17561673       2.18799372       0.00000000
Si      -1.45303543      -1.57081213       2.38052083       0.00000000
Si       0.60409837      -0.56210275       3.10295700       0.00000000
Si      -0.65523268      -2.74849770      -1.62432896       0.00000000
H        3.11340999       0.64154908      -0.73769480       0.00000000
