10
Lattice="16.290000149 0.0 0.0 0.0 16.290000149 0.0 0.0 0.0 29.1751946751" Properties=species:S:1:pos:R:3:initial_magmoms:R:1 pbc="T T T"
H       -1.05770971       1.10818265       0.03751930       0.00000000
Si      -0.83947258      -1.91686712       1.04639753       0.00000000
Si       0.30905388      -0.75822457      -2.21375542       0.00000000
Si       1.85444710       0.90864806       1.15058215       0.00000000
Si       2.58102509      -1.19456852      -2.00235196       0.00000000
Si      -2.40311711      -2.69823327      -0.54195842       0.00000000
H        0.15980490       3.29383151      -1.67804050       0.00000000
Si       0.92577700       1.72279132       3.14905381       0.00000000
Si      -2.89248501       0.54621185       2.43408649       0.00000000
Si       0.92348011      -3.07331052       2.08766023       0.00000000
