10
Lattice="16.290000149 0.0 0.0 0.0 16.290000149 0.0 0.0 0.0 29.1751946751" Properties=species:S:1:pos:R:3:initial_magmoms:R:1 pbc="T T T"
Si       1.34407162      -1.33048576      -1.38713463       0.00000000
Si      -1.36269109       1.33975477      -1.36417375       0.00000000
Si      -1.35220033      -1.39168729       1.32680033       0.00000000
Si       1.37083609       1.34798122       1.35553789       0.00000000
Si      -2.73098594      -0.04499298       2.64861170       0.00000000
Si       2.68946273      -2.71107956      -0.03255952       0.00000000
Si      -2.69801498      -0.06458985      -2.70267333       0.00000000
Si      -2.71814942       2.69252525       0.00163381       0.00000000
Si       0.02629206       2.71303436       2.70602848       0.00000000
Si       2.71877266       2.70171281      -0.00189639       0.00000000
