10
Lattice="16.290000149 0.0 0.0 0.0 16.290000149 0.0 0.0 0.0 29.1751946751" Properties=species:S:1:pos:R:3:initial_magmoms:R:1 pbc="T T T"
Si       1.29331198       1.43798347       1.31218356       0.00000000
Si      -1.35350353       1.36712197      -1.33861628       0.00000000
Si      -1.30859200      -1.34740130       1.42348692       0.00000000
Si       1.42574968      -1.36089268      -1.29949235       0.00000000
Si       2.53439822       0.04823469       2.68405956       0.00000000
Si      -2.65196315      -2.69118947       0.03171344       0.00000000
Si       0.06452469      -2.70360245      -2.67764102       0.00000000
Si      -2.70896186       0.00008145      -2.67723256       0.00000000
Si       0.02173086       2.70394454      -2.70033932       0.00000000
Si       2.76156228       0.00268785      -2.66903433       0.00000000
