10
Lattice="16.290000149 0.0 0.0 0.0 16.290000149 0.0 0.0 0.0 29.1751946751" Properties=species:S:1:pos:R:3:initial_magmoms:R:1 pbc="T T T"
Si       1.27892954      -1.37337733       1.38740013       0.00000000
Si      -1.34613931      -1.21319776      -1.48256669       0.00000000
Si      -1.43205000       1.30684897       1.35255619       0.00000000
Si       1.33566761       1.40673925      -1.35288091       0.00000000
Si      -1.63212607       0.60808942      -3.05738535       0.00000000
Si      -0.29859407       2.58742217      -2.56873002       0.00000000
Si       2.60877999      -2.68788260      -0.03204603       0.00000000
Si      -2.82432602      -2.52095897      -0.10992046       0.00000000
Si      -0.06976518       2.70190829       2.67093072       0.00000000
Si       2.58033765      -0.04640044       2.81321815       0.00000000
