10
Lattice="16.290000149 0.0 0.0 0.0 16.290000149 0.0 0.0 0.0 29.1751946751" Properties=species:S:1:pos:R:3:initial_magmoms:R:1 pbc="T T T"
Si       1.32157513      -1.48861032      -1.20780930       0.00000000
Si       1.36063855       1.28260215       1.41013635       0.00000000
Si      -1.34990344      -1.39502427       1.31079482       0.00000000
Si      -1.38313504       1.32444791      -1.36564127       0.00000000
Si       2.69434973       2.62243186       0.08121207       0.00000000
Si      -2.69842223       2.64759991       0.03511818       0.00000000
Si      -2.67393836      -0.04328005       2.69550791       0.00000000
Si       0.03042972       2.70218770       2.69647069       0.00000000
Si       0.03479544      -2.75189983       2.65034470       0.00000000
Si      -2.68701923      -2.71975966      -0.09411043       0.00000000
