10
Lattice="16.290000149 0.0 0.0 0.0 16.290000149 0.0 0.0 0.0 29.1751946751" Properties=species:S:1:pos:R:3:initial_magmoms:R:1 pbc="T T T"
Si       0.73865377      -1.32730921       1.78738913       0.00000000
Si      -1.76199158       0.97033015       1.25564203       0.00000000
Si       1.38513871       1.82545742      -0.75563754       0.00000000
Si       0.09726759      -1.72260236      -1.81002908       0.00000000
H       -2.15054066      -0.25159905      -1.31874797       0.00000000
Si       2.87555970       0.56379691      -2.04165095       0.00000000
Si       2.73323397      -2.21587985       0.80050899       0.00000000
Si      -0.78353272      -3.17319266       1.71074589       0.00000000
Si      -2.79583644       0.59148991      -2.39647967       0.00000000
Si       1.52844184      -3.35341903      -0.89314023       0.00000000
