10
Lattice="16.290000149 0.0 0.0 0.0 16.290000149 0.0 0.0 0.0 29.1751946751" Properties=species:S:1:pos:R:3:initial_magmoms:R:1 pbc="T T T"
Si      -1.32932754       1.36107838      -1.36265664       0.00000000
Si       1.30901554       1.42939864       1.32394116       0.00000000
Si      -1.34298508      -1.36691020       1.36245242       0.00000000
Si       1.37785708      -1.34747623      -1.35580047       0.00000000
Si       2.66349647       0.07161084       2.62848081       0.00000000
Si      -2.65004093       2.69746112       0.04577588       0.00000000
Si       2.68165982       2.68258835      -0.10768564       0.00000000
Si      -2.67082697      -0.00039096      -2.71831124       0.00000000
Si      -2.61478774      -0.00736308       2.78678542       0.00000000
Si       0.02239875      -2.71451675      -2.69441675       0.00000000
