10
Lattice="16.290000149 0.0 0.0 0.0 16.290000149 0.0 0.0 0.0 29.1751946751" Properties=species:S:1:pos:R:3:initial_magmoms:R:1 pbc="T T T"
Si       1.46913714      -1.29287231       1.26766221       0.00000000
Si      -1.39859425      -1.42355053      -1.25330801       0.00000000
Si      -1.22935744       1.42522840       1.42555836       0.00000000
Si       1.38640933       1.33548679      -1.37806115       0.00000000
Si       0.11319921      -2.62050716       2.58932770       0.00000000
Si      -2.58147632       2.73393444      -0.00259659       0.00000000
Si      -2.65743659      -0.03098684      -2.68344688       0.00000000
Si       0.03332934      -2.70602966      -2.66346187       0.00000000
Si       2.68968917       0.06902073       2.71635650       0.00000000
Si       2.76551586       2.69544116      -0.04230403       0.00000000
