10
Lattice="16.290000149 0.0 0.0 0.0 16.290000149 0.0 0.0 0.0 29.1751946751" Properties=species:S:1:pos:R:3:initial_magmoms:R:1 pbc="T T T"
Si       1.82149895      -0.88624117       1.14664350       0.00000000
Si      -0.87524542       1.78188167       1.28362104       0.00000000
Si       1.12106152       1.44067132      -1.55159520       0.00000000
Si      -1.02861577      -2.14940036      -0.39322327       0.00000000
H       -1.92595043      -0.57751309      -1.88206263       0.00000000
Si       2.60653034       2.45291564      -0.08084446       0.00000000
Si      -0.04738761      -2.55179594      -2.54299749       0.00000000
Si      -1.95380633       0.61545250       2.99063251       0.00000000
Si       0.99761590       3.24394176       1.44253833       0.00000000
H        3.20064294      -0.62623648      -1.75961434       0.00000000
