10
Lattice="16.290000149 0.0 0.0 0.0 16.290000149 0.0 0.0 0.0 29.1751946751" Properties=species:S:1:pos:R:3:initial_magmoms:R:1 pbc="T T T"
Si      -1.42931719       1.44448318       1.12350757       0.00000000
Si      -1.35946567      -1.30846168      -1.39011050       0.00000000
Si       1.34995231       1.38526903      -1.34955698       0.00000000
Si       1.33387408      -1.31455414       1.44096287       0.00000000
H       -0.59606740       2.37255707       1.95360021       0.00000000
Si      -2.70117524      -2.64223802      -0.01829285       0.00000000
Si       0.01368360      -2.66758526      -2.71174682       0.00000000
Si       2.71738379      -2.66576078       0.08565837       0.00000000
Si       2.73336428       0.04372236      -2.68557667       0.00000000
Si      -2.72521928       2.73668745      -0.30470573       0.00000000
