10
Lattice="16.290000149 0.0 0.0 0.0 16.290000149 0.0 0.0 0.0 29.1751946751" Properties=species:S:1:pos:R:3:initial_magmoms:R:1 pbc="T T T"
Si      -1.22986243       1.85086982       0.66571959       0.00000000
Si      -1.53516961      -0.72171217      -1.60959549       0.00000000
Si       1.62061066       0.67453633      -1.56303188       0.00000000
Si       0.07271856      -1.46194606       1.93186469       0.00000000
H        0.33409161      -2.58709963      -0.90796123       0.00000000
H        0.06732657       2.40096683       1.58637204       0.00000000
H        1.55160622      -0.40145076      -2.62352103       0.00000000
Si      -2.75468790      -2.04204926      -0.11357903       0.00000000
H       -0.27005562       3.09413892      -2.01005421       0.00000000
Si       2.31757832      -1.97249096       2.20357328       0.00000000
