10
Lattice="16.290000149 0.0 0.0 0.0 16.290000149 0.0 0.0 0.0 29.1751946751" Properties=species:S:1:pos:R:3:initial_magmoms:R:1 pbc="T T T"
Si      -1.34170957      -1.33377634       1.37181765       0.00000000
Si       1.37314927      -1.35912358      -1.32163632       0.00000000
Si       1.35946567       1.30846168       1.39011050       0.00000000
Si      -1.35648460       1.33426504      -1.37794444       0.00000000
Si      -0.06985152       2.75294487       2.51361807       0.00000000
Si      -0.00024435      -2.72360657      -2.65360066       0.00000000
Si      -2.78198994       0.03608235       2.60318592       0.00000000
Si       2.72707635       0.01332522      -2.66693372       0.00000000
Si       2.70941798       2.69373071       0.04055352       0.00000000
Si      -2.72443736      -2.68442912       0.03150921       0.00000000
