10
Lattice="16.290000149 0.0 0.0 0.0 16.290000149 0.0 0.0 0.0 29.1751946751" Properties=species:S:1:pos:R:3:initial_magmoms:R:1 pbc="T T T"
Si       1.35456238      -1.38862477      -1.33009713       0.00000000
Si       1.36432335       1.32981787       1.37943238       0.00000000
Si      -1.34087878      -1.35309628       1.38547164       0.00000000
Si      -1.34838847       1.38478033      -1.36213149       0.00000000
Si      -2.69200397       2.68778486       0.06214316       0.00000000
Si       2.71060715       2.67745700       0.01035719       0.00000000
Si      -2.69715161      -2.70285311       0.03092571       0.00000000
Si       2.70029558      -0.05953995      -2.71154259       0.00000000
Si      -2.69519681       0.05194881      -2.75113041       0.00000000
Si       0.03382226       2.67910229       2.77070989       0.00000000
