10
Lattice="16.290000149 0.0 0.0 0.0 16.290000149 0.0 0.0 0.0 29.1751946751" Properties=species:S:1:pos:R:3:initial_magmoms:R:1 pbc="T T T"
Si       1.38569257      -1.31419576      -1.35819284       0.00000000
Si       1.37036368       1.36138789       1.32726713       0.00000000
Si      -1.35576784       1.37068948      -1.33873298       0.00000000
Si      -1.35610993      -1.35495334       1.35857212       0.00000000
Si       0.00711873      -2.67797828      -2.66319930       0.00000000
Si      -0.00842193       2.70808220       2.64907850       0.00000000
Si       0.02454903       2.68848533      -2.70220653       0.00000000
Si       2.71485884      -2.68115483       0.01762182       0.00000000
Si      -2.73461862       0.01112607       2.67069732       0.00000000
Si      -2.73445572      -2.69050529       0.01397492       0.00000000
