10
Lattice="16.290000149 0.0 0.0 0.0 16.290000149 0.0 0.0 0.0 29.1751946751" Properties=species:S:1:pos:R:3:initial_magmoms:R:1 pbc="T T T"
Si       0.06900444       1.07598709       1.06048915       0.00000000
H        1.15159387       1.80996563      -1.92958903       0.00000000
Si      -2.45561978      -1.39786120      -1.03067210       0.00000000
H       -1.21751461      -2.18564887       1.71555980       0.00000000
Si      -1.55160622       0.40145076       2.62352103       0.00000000
Si      -0.46103958      -2.28643184      -2.01755224       0.00000000
Si       2.26527439       1.26658009       1.71885659       0.00000000
Si      -0.37923120       3.20997711       0.17198777       0.00000000
Si      -3.08677584      -0.32026140       1.01392554       0.00000000
Si       2.28737503       0.84106900      -2.21856933       0.00000000
