10
Lattice="16.290000149 0.0 0.0 0.0 16.290000149 0.0 0.0 0.0 29.1751946751" Properties=species:S:1:pos:R:3:initial_magmoms:R:1 pbc="T T T"
Si      -1.38782656      -1.27438300      -1.37787822       0.00000000
Si       1.20293506      -1.39730734       1.44141508       0.00000000
Si      -1.41920110       1.38171781       1.28406742       0.00000000
Si       1.87419710       0.80238025      -1.19556097       0.00000000
Si       2.51822225      -2.72045935       0.04065563       0.00000000
Si       2.63153549       0.00664632       2.68400704       0.00000000
Si       2.68402187       2.66175344      -0.01480641       0.00000000
Si       3.50726961      -0.93314008      -1.11145238       0.00000000
Si      -0.09883143       2.72269433       2.67849293       0.00000000
Si      -2.72349417      -2.68112225      -0.02499731       0.00000000
