10
Lattice="16.290000149 0.0 0.0 0.0 16.290000149 0.0 0.0 0.0 29.1751946751" Properties=species:S:1:pos:R:3:initial_magmoms:R:1 pbc="T T T"
Si       0.52387989      -0.67600243       2.23050198       0.00000000
Si      -2.01031634       1.36368478       0.08329518       0.00000000
Si       1.15509622       2.06133662      -0.59246068       0.00000000
Si      -1.22311837      -1.58943160      -1.41289633       0.00000000
Si       2.19400238      -1.42047172      -1.04260476       0.00000000
H       -1.04309758       1.11074995      -2.39344545       0.00000000
H       -1.55124784       2.64772775      -0.57413866       0.00000000
H       -2.66554901      -1.30381903      -0.97141728       0.00000000
Si      -0.01412343       2.21934962      -2.61123827       0.00000000
H        3.39089385      -1.05414220      -0.15334482       0.00000000
