10
Lattice="16.290000149 0.0 0.0 0.0 16.290000149 0.0 0.0 0.0 29.1751946751" Properties=species:S:1:pos:R:3:initial_magmoms:R:1 pbc="T T T"
Si       1.30463353      -1.37904625       1.37368487       0.00000000
Si      -1.37213929      -1.38637675      -1.30812820       0.00000000
Si      -1.32312268       1.36826227       1.37657321       0.00000000
Si       1.35589816       1.34742736      -1.37132168       0.00000000
Si      -2.68284899       2.69404022      -0.01409162       0.00000000
Si       2.68374006      -0.01909188       2.70944198       0.00000000
Si      -2.69609276      -0.02174715      -2.69987252       0.00000000
Si      -0.00099369      -2.72685806      -2.67294381       0.00000000
Si       2.69739759       2.70889670      -0.01566708       0.00000000
Si      -2.66325212       0.01940139       2.74914942       0.00000000
