10
Lattice="16.290000149 0.0 0.0 0.0 16.290000149 0.0 0.0 0.0 29.1751946751" Properties=species:S:1:pos:R:3:initial_magmoms:R:1 pbc="T T T"
Si       1.34609158       1.33021535      -1.34680576       0.00000000
Si      -1.35601219       1.39516358       1.28954360       0.00000000
Si       1.37057545      -1.36066462       1.31358397       0.00000000
Si      -1.30140811      -1.32697690      -1.42581802       0.00000000
Si      -2.68059935       0.01152680       2.65147087       0.00000000
Si      -0.01744659      -2.71990223       2.61736506       0.00000000
Si       0.03655476       2.73850215       2.61911558       0.00000000
Si       2.72627814       0.01111141       2.65179179       0.00000000
Si      -2.58033765       0.04640044      -2.81321815       0.00000000
Si      -2.65010284       2.74830873      -0.14228742       0.00000000
