10
Lattice="16.290000149 0.0 0.0 0.0 16.290000149 0.0 0.0 0.0 29.1751946751" Properties=species:S:1:pos:R:3:initial_magmoms:R:1 pbc="T T T"
Si       0.46594287       2.20670858      -0.60293457       0.00000000
Si       1.07816995       0.08835696       2.09822165       0.00000000
Si      -0.42588576      -1.81034030      -1.48869348       0.00000000
Si      -2.30994971       0.18394668       0.59467799       0.00000000
H        2.73715986       1.01475298      -0.78650490       0.00000000
H       -0.07415208      -2.93153214       1.03379385       0.00000000
H        1.83171278       2.77101048      -0.34120390       0.00000000
Si      -1.27104355      -3.29786166       0.14453391       0.00000000
Si      -2.07751259       2.03377394       2.03578673       0.00000000
Si      -1.99733484      -0.73941940      -2.84878271       0.00000000
