10
Lattice="16.290000149 0.0 0.0 0.0 16.290000149 0.0 0.0 0.0 29.1751946751" Properties=species:S:1:pos:R:3:initial_magmoms:R:1 pbc="T T T"
Si       1.35601219      -1.39516358      -1.28954360       0.00000000
Si       1.39256695       1.34333857       1.32957197       0.00000000
Si      -1.32458715      -1.38363677       1.36192726       0.00000000
Si      -1.29409064       1.35314515      -1.43183103       0.00000000
Si      -2.64456896       2.67980276      -0.02517819       0.00000000
Si       2.70210377      -0.06494823      -2.63634936       0.00000000
Si       0.03347595       2.69897609       2.68373863       0.00000000
Si      -2.65637546      -0.04191417      -2.75020556       0.00000000
Si      -2.70444953      -0.03528414       2.70305261       0.00000000
Si      -2.63871613      -2.76757329      -0.00207144       0.00000000
