10
Lattice="16.290000149 0.0 0.0 0.0 16.290000149 0.0 0.0 0.0 29.1751946751" Properties=species:S:1:pos:R:3:initial_magmoms:R:1 pbc="T T T"
Si      -1.23090499       1.31978323      -1.51252962       0.00000000
Si       1.34250778       1.45559296       1.29106071       0.00000000
Si      -1.61749927      -1.03026106       1.39413668       0.00000000
Si       1.77921011      -1.54802242      -0.62790854       0.00000000
H       -0.85750561      -1.75107728      -1.75030745       0.00000000
H       -0.20672010      -2.17390052      -1.70823682       0.00000000
H        1.32071176       0.59152249      -2.84697385       0.00000000
Si      -0.05106915      -2.31085055       2.51939476       0.00000000
Si       0.01785384       1.06906384      -3.45521831       0.00000000
Si       1.02016126      -3.42054165       0.65221148       0.00000000
