10
Lattice="16.290000149 0.0 0.0 0.0 16.290000149 0.0 0.0 0.0 29.1751946751" Properties=species:S:1:pos:R:3:initial_magmoms:R:1 pbc="T T T"
Si       1.34877943       1.38634417       1.32525404       0.00000000
Si      -1.33910969       1.35819505      -1.36370695       0.00000000
Si       1.38836413      -1.35174421      -1.33333557       0.00000000
Si      -1.35096066      -1.36339156       1.36513653       0.00000000
Si       2.66002670      -0.04188159       2.62010753       0.00000000
Si      -2.66685221       2.70669755       0.03191766       0.00000000
Si       0.04046436      -2.71339274      -2.68446801       0.00000000
Si      -2.69092883       0.00568521      -2.72531328       0.00000000
Si      -2.69246009      -2.72486090       0.00948194       0.00000000
Si       0.01980864       2.71008587      -2.72592596       0.00000000
