10
Lattice="16.290000149 0.0 0.0 0.0 16.290000149 0.0 0.0 0.0 29.1751946751" Properties=species:S:1:pos:R:3:initial_magmoms:R:1 pbc="T T T"
Si       1.36977398       1.36982611       1.32513734       0.00000000
Si      -1.32514264       1.38310246      -1.36052685       0.00000000
Si       1.37986238      -1.34835263      -1.34112535       0.00000000
Si      -1.35189082      -1.35149335       1.37301384       0.00000000
Si      -2.68374494      -2.70642062      -0.01026967       0.00000000
Si      -2.69389361       0.03440448      -2.69844293       0.00000000
Si       2.69822675       0.00866628       2.69853046       0.00000000
Si       0.00500103       2.72279207       2.67463597       0.00000000
Si       2.70444953       0.03528414      -2.70305261       0.00000000
Si      -2.69063561       2.73018774      -0.01044472       0.00000000
