10
Lattice="16.28999089631971 0.0 0.0 0.0 16.28999089631971 0.0 0.0 0.0 34.26581377546328" Properties=species:S:1:pos:R:3:initial_magmoms:R:1 pbc="T T T"
Si      -1.35052157      -1.35985988       1.38313007       0.00000000
Si       1.36834037       1.35252612       1.37942936       0.00000000
Si       1.34572008      -1.41474903      -1.37415584       0.00000000
Si      -1.38000647       1.43374806      -1.46209225       0.00000000
Si       2.52924233       0.21105324      -2.62261468       0.00000000
Si      -2.70638714       2.70905958       0.03052058       0.00000000
Si      -2.69456060      -2.72421647      -0.00494799       0.00000000
Si       2.72973965       2.70787041      -0.00846366       0.00000000
Si       2.73249266      -2.71678823       0.01337395       0.00000000
Si      -2.70757631      -0.00467523       2.74375776       0.00000000
