10
Lattice="16.28999089631971 0.0 0.0 0.0 16.28999089631971 0.0 0.0 0.0 34.26581377546328" Properties=species:S:1:pos:R:3:initial_magmoms:R:1 pbc="T T T"
Si       1.30336290       1.03700511      -1.61964312       0.00000000
Si      -1.98087119      -0.50862267      -1.12892213       0.00000000
Si      -1.01847686       1.23271317       1.71298325       0.00000000
Si       0.80137026      -2.20607325       0.28358403       0.00000000
Si      -2.89425149      -0.15247440       2.09532142       0.00000000
Si       0.07486884      -2.61255762       2.48989248       0.00000000
Si       2.11480038      -0.70683939      -2.97149877       0.00000000
Si       1.20156669      -0.70252254       3.44518964       0.00000000
Si      -0.11122160      -3.41257581      -1.55361286       0.00000000
Si      -1.66003964       0.08814519      -3.38357967       0.00000000
