10
Lattice="16.28999089631971 0.0 0.0 0.0 16.28999089631971 0.0 0.0 0.0 34.26581377546328" Properties=species:S:1:pos:R:3:initial_magmoms:R:1 pbc="T T T"
Si       1.42088873      -1.93860774       0.10077581       0.00000000
Si       0.77539260       1.80355942       1.41346359       0.00000000
Si      -1.88427800      -0.91077390       1.27370697       0.00000000
Si       1.14311165       0.75100388      -2.10597809       0.00000000
Si       2.16216518       0.50152023       2.80099339       0.00000000
Si      -0.57145747      -2.23238160       2.79378386       0.00000000
Si       3.22987694      -1.07898444       1.35511573       0.00000000
Si      -3.27835991      -2.18869182      -0.22056917       0.00000000
Si      -3.23309000      -0.83657295      -2.11108370       0.00000000
Si       1.95891485       3.42936170       0.16500476       0.00000000
