10
Lattice="16.28999089631971 0.0 0.0 0.0 16.28999089631971 0.0 0.0 0.0 34.26581377546328" Properties=species:S:1:pos:R:3:initial_magmoms:R:1 pbc="T T T"
Si       1.34096022       1.35299853       1.34630458       0.00000000
Si      -1.33278753      -1.35885478       1.36343749       0.00000000
Si       1.35506736      -1.35387656      -1.35291788       0.00000000
Si      -1.35851758       1.35749457      -1.35339760       0.00000000
Si      -2.60444520       0.07747524       2.67235804       0.00000000
Si       2.53970874       0.05501133       2.83865013       0.00000000
Si      -0.01039302       2.64772773       2.73917642       0.00000000
Si       2.71280628       0.00109143      -2.71042738       0.00000000
Si      -0.00182448      -2.71413175      -2.71035885       0.00000000
Si      -0.00197109       2.71547784      -2.71046165       0.00000000
