10
Lattice="16.28999089631971 0.0 0.0 0.0 16.28999089631971 0.0 0.0 0.0 34.26581377546328" Properties=species:S:1:pos:R:3:initial_magmoms:R:1 pbc="T T T"
Si       1.35742941      -1.35621099      -1.36278644       0.00000000
Si      -1.35804843       1.36211013      -1.36247805       0.00000000
Si      -1.34079732      -1.35951786       1.38307181       0.00000000
Si       1.35796698       1.36525573       1.39650402       0.00000000
Si       2.71489140      -2.71414539      -0.00191889       0.00000000
Si      -2.71311579       2.71598669      -0.00956017       0.00000000
Si      -2.71837746      -2.71118061      -0.00023986       0.00000000
Si       2.71078632       2.72027096      -0.00095944       0.00000000
Si       0.00001629      -2.71303767      -2.71954210       0.00000000
Si      -2.71494027       0.00185494      -2.71991902       0.00000000
