10
Lattice="16.28999089631971 0.0 0.0 0.0 16.28999089631971 0.0 0.0 0.0 34.26581377546328" Properties=species:S:1:pos:R:3:initial_magmoms:R:1 pbc="T T T"
Si       1.35281934       1.35501523      -1.39746346       0.00000000
Si      -1.35796698      -1.36525573      -1.39650402       0.00000000
Si      -1.53137403       1.40574229       1.43258594       0.00000000
Si       1.50837255      -1.30134815       1.56139121       0.00000000
Si       2.69319312       2.71744567      -0.02326650       0.00000000
Si      -2.69876430      -2.72477358      -0.01343221       0.00000000
Si       2.70816363      -2.71793178      -0.02066230       0.00000000
Si      -2.73012255       2.70372949      -0.05975961       0.00000000
Si      -0.00154755       2.70803005      -2.75990725       0.00000000
Si       2.71564074      -0.00568032      -2.75791983       0.00000000
