10
Lattice="16.28999089631971 0.0 0.0 0.0 16.28999089631971 0.0 0.0 0.0 34.26581377546328" Properties=species:S:1:pos:R:3:initial_magmoms:R:1 pbc="T T T"
Si      -0.02806767      -1.79932077      -1.48768540       0.00000000
Si       1.72349829       1.50807770      -0.48698602       0.00000000
Si       0.18966447      -0.98923536       2.15391599       0.00000000
Si      -1.84409316       1.52083277       0.13925635       0.00000000
Si       1.07059509       3.27052538       1.00669591       0.00000000
Si      -2.29267089      -2.56842054      -1.31916604       0.00000000
Si      -1.97294706      -0.77221998       3.12751110       0.00000000
Si      -2.60485245       1.39010552       2.41303422       0.00000000
Si      -3.06812376       1.27568456      -1.87283336       0.00000000
Si      -0.52013970      -1.13885901      -3.65712382       0.00000000
