10
Lattice="16.28999089631971 0.0 0.0 0.0 16.28999089631971 0.0 0.0 0.0 34.26581377546328" Properties=species:S:1:pos:R:3:initial_magmoms:R:1 pbc="T T T"
Si       2.29399038      -0.31379427      -0.29043720       0.00000000
Si      -1.03734720      -1.72190187      -1.20166849       0.00000000
Si      -0.32798286       1.80892305      -1.48281965       0.00000000
Si      -0.43497558       0.23729643       2.33302350       0.00000000
Si      -3.22439373      -0.99911457      -0.87110600       0.00000000
Si       0.49878351       0.67699611      -3.42702875       0.00000000
Si       3.13186653       1.46906478       1.06337159       0.00000000
Si       2.63810034       0.15851799      -2.60800681       0.00000000
Si      -0.27658791      -1.59117462      -3.47544637       0.00000000
Si       2.94653520      -2.60868874       0.00877205       0.00000000
