10
Lattice="16.28999089631971 0.0 0.0 0.0 16.28999089631971 0.0 0.0 0.0 34.26581377546328" Properties=species:S:1:pos:R:3:initial_magmoms:R:1 pbc="T T T"
Si      -0.58301910      -0.97007716       2.04460798       0.00000000
Si       2.31765975      -0.35463004      -0.12952485       0.00000000
Si      -0.65254482       2.29489447      -0.29920925       0.00000000
Si      -1.18936548      -1.49255400      -1.46955878       0.00000000
Si      -3.35197701      -1.27553862      -0.49596367       0.00000000
Si       0.91193049      -2.80606557       2.12670892       0.00000000
Si       3.18008493       1.76700073      -0.59941222       0.00000000
Si      -2.86348878      -1.58167659       1.85614590       0.00000000
Si      -0.30843486       2.76720674      -2.61677886       0.00000000
Si      -1.37902995      -0.50331865      -3.62347477       0.00000000
