10
Lattice="16.28999089631971 0.0 0.0 0.0 16.28999089631971 0.0 0.0 0.0 34.26581377546328" Properties=species:S:1:pos:R:3:initial_magmoms:R:1 pbc="T T T"
Si      -2.15305649      -1.08616833       0.08775480       0.00000000
Si      -0.66171609       1.68568920      -1.67395447       0.00000000
Si       0.43673490       0.84509262       2.32151018       0.00000000
Si       2.05719894      -1.09107162      -1.34698989       0.00000000
Si       1.95616836      -0.98323182       2.46169170       0.00000000
Si      -1.52534673      -0.01218492      -3.08344524       0.00000000
Si      -2.22082289      -2.01903473      -1.98820642       0.00000000
Si      -3.47443613       0.65335932       0.89869000       0.00000000
Si       3.52579131      -1.21066303       0.68353484       0.00000000
Si      -2.54636225       2.79743283       0.69374605       0.00000000
