10
Lattice="16.28999089631971 0.0 0.0 0.0 16.28999089631971 0.0 0.0 0.0 34.26581377546328" Properties=species:S:1:pos:R:3:initial_magmoms:R:1 pbc="T T T"
Si       2.22250986       0.16366563      -0.86209409       0.00000000
Si      -1.04785425      -2.15993997      -0.20737682       0.00000000
Si      -0.61949241       1.48392126      -1.91217054       0.00000000
Si       0.27225477       0.80865189       2.38318868       0.00000000
Si       2.65686642      -2.06324253      -0.17458442       0.00000000
Si      -0.70367913       2.85452928       1.73621549       0.00000000
Si      -0.35925966       3.45564657      -0.57056038       0.00000000
Si      -2.88289017       2.12002947       1.12621513       0.00000000
Si      -2.86993962       2.10978306      -1.39523619       0.00000000
Si      -3.39832206      -1.71048258      -0.44254323       0.00000000
