10
Lattice="16.28999089631971 0.0 0.0 0.0 16.28999089631971 0.0 0.0 0.0 34.26581377546328" Properties=species:S:1:pos:R:3:initial_magmoms:R:1 pbc="T T T"
Si       1.23114933      -1.39207824       1.42263172       0.00000000
Si      -1.84686246      -0.95182470      -1.21420294       0.00000000
Si       1.89473877       0.54910332      -1.40514042       0.00000000
Si      -1.45899756       1.34004798       1.40833259       0.00000000
Si       2.62773990       2.59880886      -0.10827318       0.00000000
Si       2.55409281      -2.75884182      -0.00954989       0.00000000
Si      -0.85066380      -1.52575398      -3.33410122       0.00000000
Si       1.41652953      -0.82624509      -3.42761268       0.00000000
Si       2.59346574      -0.01959687       2.77982940       0.00000000
Si      -0.12237048       2.69558775       2.78274200       0.00000000
