10
Lattice="16.28999089631971 0.0 0.0 0.0 16.28999089631971 0.0 0.0 0.0 34.26581377546328" Properties=species:S:1:pos:R:3:initial_magmoms:R:1 pbc="T T T"
Si       1.31712795      -1.25620335       1.53121329       0.00000000
Si       2.07083367       0.74367108      -1.07832109       0.00000000
Si      -1.40281335       1.44433656       1.49492920       0.00000000
Si      -0.73300113      -2.04970554      -1.29686724       0.00000000
Si       1.41701823       0.16394256      -3.33215492       0.00000000
Si      -2.62773990      -2.59880886       0.10827318       0.00000000
Si       2.70769122      -2.60353296       0.21091991       0.00000000
Si      -1.86887025       2.63808405      -2.09005274       0.00000000
Si      -0.03427416      -2.61840573       2.88810258       0.00000000
Si       2.67618636       0.09762597       2.88704034       0.00000000
