10
Lattice="16.28999089631971 0.0 0.0 0.0 16.28999089631971 0.0 0.0 0.0 34.26581377546328" Properties=species:S:1:pos:R:3:initial_magmoms:R:1 pbc="T T T"
Si       1.76593700       0.06436179      -1.67066495       0.00000000
Si      -2.14186200      -0.83280996      -0.80339672       0.00000000
Si       0.16221093      -1.97307086       1.49570361       0.00000000
Si      -0.83338404       2.34843156      -0.39059623       0.00000000
Si       0.74844568       1.14681600       2.15018102       0.00000000
Si       1.56159524      -0.92675439       3.08594665       0.00000000
Si      -2.14523403      -0.12737151      -3.09348513       0.00000000
Si      -3.76245636       0.71014626      -0.07480231       0.00000000
Si      -2.75871543       2.58419673       0.87460112       0.00000000
Si      -1.68714294      -2.10664723       2.98931700       0.00000000
