10
Lattice="16.28999089631971 0.0 0.0 0.0 16.28999089631971 0.0 0.0 0.0 34.26581377546328" Properties=species:S:1:pos:R:3:initial_magmoms:R:1 pbc="T T T"
Si       0.97593390      -2.04587739       0.64697319       0.00000000
Si      -2.17921104      -0.73449981      -0.61000036       0.00000000
Si      -0.33607899       1.63056384       1.70215525       0.00000000
Si       0.34441947       0.60111729      -2.30677587       0.00000000
Si       0.70367913      -2.85452928      -1.73621549       0.00000000
Si      -2.11237317       2.78150121       0.68271246       0.00000000
Si      -3.58738380       1.02165993       0.09227789       0.00000000
Si       2.54130516       1.23360912      -2.62973135       0.00000000
Si      -2.16626049      -0.74474622      -3.13145167       0.00000000
Si       0.08418672      -1.37060802      -3.64838603       0.00000000
