10
Lattice="16.28999089631971 0.0 0.0 0.0 16.28999089631971 0.0 0.0 0.0 34.26581377546328" Properties=species:S:1:pos:R:3:initial_magmoms:R:1 pbc="T T T"
Si      -2.11416507      -0.38118600      -0.97109371       0.00000000
Si       1.59936849      -1.25286390      -1.24498051       0.00000000
Si       0.46191924       2.34541791      -0.15330534       0.00000000
Si      -0.11671785      -0.73858860       2.29728424       0.00000000
Si      -1.80444330       2.94611166       0.01833222       0.00000000
Si       3.15815859      -1.38248343       0.56675688       0.00000000
Si      -1.54867401      -2.33051256      -2.22690222       0.00000000
Si       2.27214549      -0.62547084       2.70967354       0.00000000
Si      -2.71703516       1.73960910      -1.81886468       0.00000000
Si       0.54294570      -3.27987747      -1.78185758       0.00000000
