10
Lattice="16.28999089631971 0.0 0.0 0.0 16.28999089631971 0.0 0.0 0.0 34.26581377546328" Properties=species:S:1:pos:R:3:initial_magmoms:R:1 pbc="T T T"
Si      -0.92546748       1.79817165       1.12570114       0.00000000
Si      -1.34187246      -0.80751159      -1.77476455       0.00000000
Si       1.94033448       0.89314812      -1.10277730       0.00000000
Si       0.51078924      -1.51415550       1.81249123       0.00000000
Si       2.75876037      -0.86439627       1.72593574       0.00000000
Si       3.28056165      -0.94693770      -0.57148556       0.00000000
Si       0.72154926       2.00207358       2.92774130       0.00000000
Si      -3.20803857       1.29673287       1.55847861       0.00000000
Si      -0.51851070       0.14147865      -3.83876700       0.00000000
Si       1.36410831       1.54377072      -3.32385433       0.00000000
