10
Lattice="16.28999089631971 0.0 0.0 0.0 16.28999089631971 0.0 0.0 0.0 34.26581377546328" Properties=species:S:1:pos:R:3:initial_magmoms:R:1 pbc="T T T"
Si      -2.18704653       0.72278730       0.33056249       0.00000000
Si       1.03734720       1.72190187       1.20166849       0.00000000
Si       0.63190539      -2.16232550       0.71447688       0.00000000
Si       0.76075929       0.13072725      -2.27377788       0.00000000
Si      -1.13603202      -3.29009849      -0.38418852       0.00000000
Si       0.70936434       3.53082492      -0.28115116       0.00000000
Si       1.53613071       2.39889798      -2.22536025       0.00000000
Si       2.79451692      -2.37934088      -0.25911823       0.00000000
Si       3.33133758       1.40810760       0.91123129       0.00000000
Si       2.60485245      -1.39010552      -2.41303422       0.00000000
