10
Lattice="16.28999089631971 0.0 0.0 0.0 16.28999089631971 0.0 0.0 0.0 34.26581377546328" Properties=species:S:1:pos:R:3:initial_magmoms:R:1 pbc="T T T"
Si      -1.72349829      -1.50807770       0.48698602       0.00000000
Si       2.19181950      -0.85837386       0.25682242       0.00000000
Si      -0.65290320       1.76244768       1.49368192       0.00000000
Si       0.29830248       1.21209003      -2.24047149       0.00000000
Si       2.69904123       1.26058536       1.19433561       0.00000000
Si       1.16370873       3.01107618       0.81244290       0.00000000
Si      -3.56759145       0.01275507       0.62624236       0.00000000
Si      -2.79222003       2.28092580       0.67465998       0.00000000
Si       2.08067283      -0.25756119      -3.13247965       0.00000000
Si       0.81997344       3.43880271      -1.42953628       0.00000000
