10
Lattice="16.28999089631971 0.0 0.0 0.0 16.28999089631971 0.0 0.0 0.0 34.26581377546328" Properties=species:S:1:pos:R:3:initial_magmoms:R:1 pbc="T T T"
Si      -0.75085497       1.68458148       1.41898241       0.00000000
Si       2.26882233       0.41687739       0.34755834       0.00000000
Si      -0.86242518      -2.12163078       0.46988737       0.00000000
Si      -0.13657536       0.49834368      -2.31671296       0.00000000
Si      -0.04409703      -3.06255977      -1.48124343       0.00000000
Si       0.40707081       3.41049069       0.29362392       0.00000000
Si       2.52696996       2.63059065      -0.31044845       0.00000000
Si      -3.18008493      -1.76700073       0.59941222       0.00000000
Si      -0.64379709      -1.62061554      -3.25422615       0.00000000
Si      -3.83262975       0.52789374       0.30020296       0.00000000
