10
Lattice="16.28999089631971 0.0 0.0 0.0 16.28999089631971 0.0 0.0 0.0 34.26581377546328" Properties=species:S:1:pos:R:3:initial_magmoms:R:1 pbc="T T T"
Si      -2.09152197      -0.78282409      -0.68884604       0.00000000
Si       1.40621796      -1.86988186       0.49017274       0.00000000
Si       0.71472375       1.77855849      -1.45163775       0.00000000
Si      -0.63732996       1.12417290       2.23077426       0.00000000
Si      -1.48336740       2.73206106      -1.23932665       0.00000000
Si      -3.29439186       1.26400626      -0.83522968       0.00000000
Si      -2.68956045      -2.34478979       0.95615380       0.00000000
Si       1.33626870       2.52089379       2.57199342       0.00000000
Si       2.76726375      -2.29391612      -1.40435090       0.00000000
Si       2.28509604      -1.71423580       2.66492236       0.00000000
