10
Lattice="16.28999089631971 0.0 0.0 0.0 16.28999089631971 0.0 0.0 0.0 34.26581377546328" Properties=species:S:1:pos:R:3:initial_magmoms:R:1 pbc="T T T"
Si       0.75085497      -1.68458148      -1.41898241       0.00000000
Si      -2.24389863       0.62617131       0.23502935       0.00000000
Si       1.15792578       1.72590921      -1.12535848       0.00000000
Si       0.01510083      -0.57663342       2.39302297       0.00000000
Si      -2.18299032       0.37686915       2.60533407       0.00000000
Si       3.01967730      -1.26770409      -1.07142406       0.00000000
Si      -3.08177478      -1.15668774      -1.11877944       0.00000000
Si       2.15710551       0.31933287       2.80558360       0.00000000
Si       0.93366135       3.47973948       0.33069955       0.00000000
Si       3.47944626      -0.88672986       1.22452381       0.00000000
