10
Lattice="16.28999089631971 0.0 0.0 0.0 16.28999089631971 0.0 0.0 0.0 34.26581377546328" Properties=species:S:1:pos:R:3:initial_magmoms:R:1 pbc="T T T"
Si       0.93292830      -2.09872541       0.35790662       0.00000000
Si       1.76823063       1.32291090      -0.81977579       0.00000000
Si      -1.67225647      -0.06983523      -1.75879667       0.00000000
Si      -0.60491286       0.97309944       2.17728529       0.00000000
Si       0.59165280       3.23263647      -0.02460287       0.00000000
Si      -1.81263880       3.05035137       0.00445456       0.00000000
Si      -2.77226918       1.65043764       1.67409153       0.00000000
Si      -0.96107742      -3.47469677       0.46567267       0.00000000
Si       3.58495659       0.83732229       0.68497400       0.00000000
Si       0.85665852       2.83250520       2.35238370       0.00000000
