10
Lattice="16.28999089631971 0.0 0.0 0.0 16.28999089631971 0.0 0.0 0.0 34.26581377546328" Properties=species:S:1:pos:R:3:initial_magmoms:R:1 pbc="T T T"
Si       0.22426443      -1.75383027      -1.45605804       0.00000000
Si       1.18861614       1.79670555      -0.86277941       0.00000000
Si       0.85551822      -0.81168183       2.09987877       0.00000000
Si      -2.18650896       0.78923421      -0.73503638       0.00000000
Si       0.17567136       3.54195099       0.32782122       0.00000000
Si      -0.93366135      -3.47973948      -0.33069955       0.00000000
Si      -2.09600172       2.97215937       0.18996978       0.00000000
Si      -0.98403003      -0.34626024       3.57344665       0.00000000
Si      -0.84607002      -1.05265980      -3.49977511       0.00000000
Si       0.71426763       1.93194513      -3.22804706       0.00000000
