10
Lattice="16.28999089631971 0.0 0.0 0.0 16.28999089631971 0.0 0.0 0.0 34.26581377546328" Properties=species:S:1:pos:R:3:initial_magmoms:R:1 pbc="T T T"
Si      -1.34022717       1.84008582      -0.53129174       0.00000000
Si       2.27167308       0.56979162       0.13785145       0.00000000
Si      -0.52180128       0.08254143       2.29742130       0.00000000
Si      -0.09050724      -2.18292516      -0.92500616       0.00000000
Si      -3.28056165       0.94693770       0.57148556       0.00000000
Si       2.09600172      -2.97215937      -0.18996978       0.00000000
Si       3.28461786      -1.17545382      -1.05274918       0.00000000
Si      -0.35495910       3.58044426       0.78646940       0.00000000
Si      -2.76977241      -0.56721780       2.38397679       0.00000000
Si      -0.39470670       2.40916068       2.81466405       0.00000000
