10
Lattice="16.28999089631971 0.0 0.0 0.0 16.28999089631971 0.0 0.0 0.0 34.26581377546328" Properties=species:S:1:pos:R:3:initial_magmoms:R:1 pbc="T T T"
Si       0.68502708      -0.45664128      -2.18804476       0.00000000
Si       2.18095407      -0.00775404       0.95183631       0.00000000
Si      -0.70358139      -2.19629925       0.70320342       0.00000000
Si      -1.47027024       1.86699690       0.48314824       0.00000000
Si       0.94602546       0.70895709       2.80040162       0.00000000
Si       1.19848788      -3.38341671      -0.07744078       0.00000000
Si      -0.92439234       0.61634844      -3.42713155       0.00000000
Si       0.70938063      -2.78461260      -2.34107597       0.00000000
Si      -0.81645480       2.44672542       2.73698207       0.00000000
Si      -1.80082692      -1.96408530       2.76806838       0.00000000
