10
Lattice="16.28999089631971 0.0 0.0 0.0 16.28999089631971 0.0 0.0 0.0 34.26581377546328" Properties=species:S:1:pos:R:3:initial_magmoms:R:1 pbc="T T T"
Si      -1.23492861       0.71671113       1.84856531       0.00000000
Si      -2.18095407       0.00775404      -0.95183631       0.00000000
Si       1.01848338      -2.19872646      -0.36589056       0.00000000
Si       1.56105441       1.74280194      -0.75436231       0.00000000
Si      -1.49592699      -0.44888724      -3.13988107       0.00000000
Si       0.40811337       1.88822277       2.96616499       0.00000000
Si      -2.88453546      -2.18854521      -0.24863288       0.00000000
Si      -0.98246619      -3.37566267      -1.02927709       0.00000000
Si       0.44893611       2.63417445      -2.70710360       0.00000000
Si       1.68153525       3.19165083       1.35891440       0.00000000
