10
Lattice="16.28999089631971 0.0 0.0 0.0 16.28999089631971 0.0 0.0 0.0 34.26581377546328" Properties=species:S:1:pos:R:3:initial_magmoms:R:1 pbc="T T T"
Si       1.35476925      -1.35674523       1.36309483       0.00000000
Si      -1.35998536       1.36013355       1.36354029       0.00000000
Si      -1.36834037      -1.35252612      -1.37942936       0.00000000
Si       1.36139928       1.35534429      -1.38789302       0.00000000
Si       2.70999951       2.71907793       0.00524267       0.00000000
Si       2.71473990      -2.71648619       0.00534547       0.00000000
Si      -2.71886194      -2.71238600       0.00370071       0.00000000
Si       2.71311090       0.00123804       2.72118686       0.00000000
Si      -2.71726552       2.71749780       0.00801820       0.00000000
Si      -0.00161271      -2.71461447       2.72149525       0.00000000
