10
Lattice="16.28999089631971 0.0 0.0 0.0 16.28999089631971 0.0 0.0 0.0 34.26581377546328" Properties=species:S:1:pos:R:3:initial_magmoms:R:1 pbc="T T T"
Si       1.28010078      -1.38733785       1.44417807       0.00000000
Si      -1.44748053       1.30013115       1.43407651       0.00000000
Si      -0.70128450      -2.10883824      -1.15706055       0.00000000
Si       1.09125081       1.90037578      -1.52294978       0.00000000
Si      -0.18401184      -0.65785536      -3.08392980       0.00000000
Si       2.70423774      -2.67509493       0.02395867       0.00000000
Si      -1.51759269       1.35355469      -3.22856588       0.00000000
Si      -2.66725944       2.73774205       0.01916488       0.00000000
Si       2.61905733      -0.04139289       2.80908900       0.00000000
Si      -0.08933436       2.67314569       2.81052816       0.00000000
