10
Lattice="16.28999089631971 0.0 0.0 0.0 16.28999089631971 0.0 0.0 0.0 34.26581377546328" Properties=species:S:1:pos:R:3:initial_magmoms:R:1 pbc="T T T"
Si      -1.14015339      -1.57726296      -1.42583557       0.00000000
Si       1.60375050       1.12190859      -1.41483624       0.00000000
Si       1.45683099      -1.18069920       1.71915110       0.00000000
Si      -1.81581372       1.92017465       0.10673807       0.00000000
Si      -1.65091005      -0.77162472       3.15924126       0.00000000
Si       2.42317008      -2.75095746       0.09632126       0.00000000
Si       0.14990058       2.48730937      -2.78988985       0.00000000
Si      -2.57930973      -0.23179041      -2.77978143       0.00000000
Si      -2.07850626      -3.32887779      -0.10365414       0.00000000
Si       2.86458021      -0.25682814      -2.80321926       0.00000000
