10
Lattice="16.28999089631971 0.0 0.0 0.0 16.28999089631971 0.0 0.0 0.0 34.26581377546328" Properties=species:S:1:pos:R:3:initial_magmoms:R:1 pbc="T T T"
Si      -1.71756873       1.60220295      -0.45124675       0.00000000
Si       0.73309887       0.35266221       2.26250442       0.00000000
Si      -0.28916379      -2.34256716      -0.62456334       0.00000000
Si       1.39017231       1.19312847      -1.89133691       0.00000000
Si      -3.53253537       0.84087351       0.89252215       0.00000000
Si      -2.36827278      -2.94578586       0.52738543       0.00000000
Si      -0.55855152       3.77520491       0.16372215       0.00000000
Si       2.07956511       2.27641347       2.38860268       0.00000000
Si       1.75420494      -1.64051703       3.07522144       0.00000000
Si      -3.75578982      -1.15028577      -0.32079673       0.00000000
