10
Lattice="16.28999089631971 0.0 0.0 0.0 16.28999089631971 0.0 0.0 0.0 34.26581377546328" Properties=species:S:1:pos:R:3:initial_magmoms:R:1 pbc="T T T"
Si       1.01681921      -2.00034751       0.63141650       0.00000000
Si       1.63657552       1.66049509       0.27864975       0.00000000
Si      -1.58605956       0.56308340       1.66730690       0.00000000
Si      -0.96109371       0.63693737      -2.08308852       0.00000000
Si      -1.92274128       2.77210840       0.93751319       0.00000000
Si       2.28764447       1.81683022      -1.98645887       0.00000000
Si       0.27842868       3.55490806       0.49579234       0.00000000
Si      -1.83922245      -2.89266484      -1.11470181       0.00000000
Si      -0.85895541      -3.38553508       1.01375467       0.00000000
Si      -2.38251024       2.39113417      -1.35843468       0.00000000
