10
Lattice="16.28999089631971 0.0 0.0 0.0 16.28999089631971 0.0 0.0 0.0 34.26581377546328" Properties=species:S:1:pos:R:3:initial_magmoms:R:1 pbc="T T T"
Si       1.28213703      -1.26715023       1.49477500       0.00000000
Si       1.74840570       0.95281839      -1.24417667       0.00000000
Si      -1.41635034       1.43207019       1.47247823       0.00000000
Si      -0.74300319      -2.00386548      -1.30397055       0.00000000
Si       2.60851770      -2.54246175       0.00216217       0.00000000
Si       0.61743987       1.51640352      -3.26873914       0.00000000
Si      -2.67836922      -2.77511553      -0.07590567       0.00000000
Si       2.71691136       2.74405050       0.00162077       0.00000000
Si      -0.07718202      -2.62120761       2.85204465       0.00000000
Si       2.63959902       0.09381411       2.85170199       0.00000000
