10
Lattice="16.28999089631971 0.0 0.0 0.0 16.28999089631971 0.0 0.0 0.0 34.26581377546328" Properties=species:S:1:pos:R:3:initial_magmoms:R:1 pbc="T T T"
Si       1.35335691      -1.35615879       1.35641300       0.00000000
Si       1.35633798       1.35860229      -1.35754377       0.00000000
Si      -1.35884664      -1.35664749      -1.35709831       0.00000000
Si      -1.35632169       1.35751086       1.36504799       0.00000000
Si       2.71088406      -0.01063737       2.71056445       0.00000000
Si       2.71339272      -2.71287959      -0.00061678       0.00000000
Si       2.71337643       0.00154755      -2.71426516       0.00000000
Si      -0.00213399      -2.71388957      -2.71402530       0.00000000
Si      -2.71523349      -2.71374295       0.00126784       0.00000000
Si       2.71337643       2.71634121       0.00085665       0.00000000
