10
Lattice="16.28999089631971 0.0 0.0 0.0 16.28999089631971 0.0 0.0 0.0 34.26581377546328" Properties=species:S:1:pos:R:3:initial_magmoms:R:1 pbc="T T T"
Si      -2.14200468      -0.89596629      -0.41256063       0.00000000
Si       1.32234075      -1.20606273      -1.58105980       0.00000000
Si      -0.36792594       2.34872478      -0.37500528       0.00000000
Si       0.59732172      -0.54838656       2.31136749       0.00000000
Si      -2.15710551      -0.31933287      -2.80558360       0.00000000
Si      -2.20747419       2.81414637       1.09856260       0.00000000
Si       1.74245985       3.42590103       0.23975803       0.00000000
Si       1.65902247      -3.41508773      -0.85126609       0.00000000
Si      -1.52045973      -0.15363099       3.61107054       0.00000000
Si       3.78164484      -0.59740317       1.19296497       0.00000000
