10
Lattice="16.28999089631971 0.0 0.0 0.0 16.28999089631971 0.0 0.0 0.0 34.26581377546328" Properties=species:S:1:pos:R:3:initial_magmoms:R:1 pbc="T T T"
Si      -1.42307811       1.29008655       1.37467669       0.00000000
Si       1.53238794      -1.85855868      -0.08563032       0.00000000
Si      -1.84652037      -0.89472825      -1.27657361       0.00000000
Si       1.20393267       2.08525032      -0.42558164       0.00000000
Si       0.13577715      -0.66727098      -2.58251303       0.00000000
Si       0.25547607       1.25721333       2.96896309       0.00000000
Si      -2.91037140      -1.87049925       0.79551558       0.00000000
Si       3.22822907       1.56836862       0.70066775       0.00000000
Si       2.47721771       0.62247348       2.70898822       0.00000000
Si      -3.20111532       0.04864194       2.15980972       0.00000000
