10
Lattice="16.28999089631971 0.0 0.0 0.0 16.28999089631971 0.0 0.0 0.0 34.26581377546328" Properties=species:S:1:pos:R:3:initial_magmoms:R:1 pbc="T T T"
Si      -1.18861614      -1.79670555       0.86277941       0.00000000
Si      -1.01294478       1.74524544       1.19060063       0.00000000
Si       2.35229229       0.09348831       0.24876995       0.00000000
Si      -0.47434851       0.13523958      -2.36526765       0.00000000
Si      -3.37512510      -1.00747134       0.12774303       0.00000000
Si       2.98224288       1.34381097      -1.55611427       0.00000000
Si      -3.28461786       1.17545382       1.05274918       0.00000000
Si       1.30368870       1.37668419      -3.15040068       0.00000000
Si      -0.96435171      -3.55053582      -0.59327863       0.00000000
Si      -0.73280565       3.69556569      -0.11475627       0.00000000
