10
Lattice="16.28999089631971 0.0 0.0 0.0 16.28999089631971 0.0 0.0 0.0 34.26581377546328" Properties=species:S:1:pos:R:3:initial_magmoms:R:1 pbc="T T T"
Si       1.35135324      -1.29472920      -1.39287184       0.00000000
Si      -1.73042154      -0.87237837       1.34267240       0.00000000
Si       1.62184869       1.15246863       1.31179888       0.00000000
Si      -1.33617748       1.42263828      -1.37063332       0.00000000
Si       2.55010176      -2.59271640       0.09947371       0.00000000
Si      -2.59405218      -2.57025249      -0.06681837       0.00000000
Si      -2.66777339       2.70358614       0.08840585       0.00000000
Si      -3.44563541       0.80725095       1.41014182       0.00000000
Si       0.01039302      -2.64772773      -2.73917642       0.00000000
Si      -2.70673730       0.06771753      -2.73386521       0.00000000
