10
Lattice="16.28999089631971 0.0 0.0 0.0 16.28999089631971 0.0 0.0 0.0 34.26581377546328" Properties=species:S:1:pos:R:3:initial_magmoms:R:1 pbc="T T T"
Si      -1.35609363      -1.35671265      -1.35644726       0.00000000
Si      -1.35338949       1.35578412       1.36117595       0.00000000
Si       1.35827649       1.35819080      -1.35610460       0.00000000
Si       1.36029645      -1.35804843       1.35682419       0.00000000
Si       0.00444717      -2.71075374       2.71155816       0.00000000
Si       0.00048870      -2.71313208      -2.71351131       0.00000000
Si      -2.71360449      -2.71375110      -0.00020559       0.00000000
Si       2.71482624      -2.71295289       0.00044546       0.00000000
Si      -2.71402803       0.00198738      -2.71402530       0.00000000
Si       2.71564074       0.00135207      -2.71316865       0.00000000
