10
Lattice="16.28999089631971 0.0 0.0 0.0 16.28999089631971 0.0 0.0 0.0 34.26581377546328" Properties=species:S:1:pos:R:3:initial_magmoms:R:1 pbc="T T T"
Si      -1.26082971       1.37873673       1.38838302       0.00000000
Si      -1.36308204      -1.33718094      -1.35898293       0.00000000
Si       1.34780460       1.38140368      -1.35733817       0.00000000
Si       1.23935949      -1.34662914       1.54826739       0.00000000
Si       0.76693320       2.16432591       2.40563280       0.00000000
Si       2.43378694       0.40966092       2.79777099       0.00000000
Si       2.69074540      -2.67830406       0.01853782       0.00000000
Si      -0.00855225      -2.69208540      -2.71536166       0.00000000
Si      -2.71893132      -2.68988625      -0.00424896       0.00000000
Si       2.70820503       0.02308293      -2.71450502       0.00000000
