10
Lattice="16.28999089631971 0.0 0.0 0.0 16.28999089631971 0.0 0.0 0.0 34.26581377546328" Properties=species:S:1:pos:R:3:initial_magmoms:R:1 pbc="T T T"
Si       2.25095546      -0.55008072       0.31010579       0.00000000
Si      -1.08657951      -2.07130608      -0.03320359       0.00000000
Si      -1.53238794       1.85855868       0.08563032       0.00000000
Si       0.14320539      -0.63623853      -2.42578111       0.00000000
Si      -1.39661079       1.19128770      -2.49688271       0.00000000
Si       3.10401389       1.67076756       0.08401982       0.00000000
Si       2.11319093      -1.58908950       2.38658100       0.00000000
Si       2.58858200      -2.15974449      -1.48473854       0.00000000
Si      -3.37890831       0.96383043      -1.19094329       0.00000000
Si      -3.01191090      -1.83554091       1.23199376       0.00000000
