10
Lattice="16.28999089631971 0.0 0.0 0.0 16.28999089631971 0.0 0.0 0.0 34.26581377546328" Properties=species:S:1:pos:R:3:initial_magmoms:R:1 pbc="T T T"
Si       1.84230126      -1.41232671       0.43740336       0.00000000
Si      -1.46157138      -1.85940576      -0.17509841       0.00000000
Si      -0.11326437       0.32236281       2.38497050       0.00000000
Si      -0.26500572       0.40013127      -2.37698656       0.00000000
Si      -0.40312863       2.59258608       2.15785656       0.00000000
Si      -2.66929732       0.21784617      -2.34792914       0.00000000
Si       0.91157211      -1.50959430      -3.17215948       0.00000000
Si      -1.08958923      -2.99770209       1.98200431       0.00000000
Si       2.72829807      -1.99518291      -1.66740970       0.00000000
Si      -0.85665852      -2.83250520      -2.35238370       0.00000000
