10
Lattice="16.28999089631971 0.0 0.0 0.0 16.28999089631971 0.0 0.0 0.0 34.26581377546328" Properties=species:S:1:pos:R:3:initial_magmoms:R:1 pbc="T T T"
Si       1.86849558       1.04524785       0.81830236       0.00000000
Si       0.91083906       0.19816785      -2.12451591       0.00000000
Si      -2.16136534       0.68103603       0.64272423       0.00000000
Si       0.50521806      -2.21974056       0.79623516       0.00000000
Si       3.01589802      -0.87387705       1.62091096       0.00000000
Si      -1.89304787      -2.28587796      -2.01808623       0.00000000
Si      -3.43851668      -0.88378137      -0.73099301       0.00000000
Si      -0.48084822      -1.03855266      -3.48391003       0.00000000
Si       1.19588148       2.38192380       2.61424319       0.00000000
Si      -2.09302065       3.08263815       0.51251406       0.00000000
