10
Lattice="16.28999089631971 0.0 0.0 0.0 16.28999089631971 0.0 0.0 0.0 34.26581377546328" Properties=species:S:1:pos:R:3:initial_magmoms:R:1 pbc="T T T"
Si      -0.75101135      -0.94589514       2.00832047       0.00000000
Si       1.40817276      -1.75615974      -0.70227825       0.00000000
Si       1.47501063       1.75984128       0.59043457       0.00000000
Si      -2.02429640       0.51688170      -1.12624940       0.00000000
Si      -2.29982939       2.55482586       0.17835366       0.00000000
Si      -3.22822907      -1.56836862      -0.70066775       0.00000000
Si       3.25130481       0.60890391       1.60987736       0.00000000
Si       3.58738380      -1.02165993      -0.09227789       0.00000000
Si      -2.97275300      -0.31115529       2.26829534       0.00000000
Si      -1.24546009       1.13437044      -3.37724049       0.00000000
