10
Lattice="16.28999089631971 0.0 0.0 0.0 16.28999089631971 0.0 0.0 0.0 34.26581377546328" Properties=species:S:1:pos:R:3:initial_magmoms:R:1 pbc="T T T"
Si      -1.40817276       1.75615974       0.70227825       0.00000000
Si       2.17921104       0.73449981       0.61000036       0.00000000
Si      -0.85305843      -2.22084828       0.22608597       0.00000000
Si       0.01295055      -0.01024641      -2.52145132       0.00000000
Si       2.52363051       1.33561710      -1.69677551       0.00000000
Si      -3.10401389      -1.67076756      -0.08401982       0.00000000
Si      -2.15918411       0.81026460       2.71059871       0.00000000
Si       3.15514494      -1.31137758       1.25697355       0.00000000
Si       0.06683787       3.51600102       1.29271281       0.00000000
Si       2.88289017      -2.12002947      -1.12621513       0.00000000
