10
Lattice="16.28999089631971 0.0 0.0 0.0 16.28999089631971 0.0 0.0 0.0 34.26581377546328" Properties=species:S:1:pos:R:3:initial_magmoms:R:1 pbc="T T T"
Si      -0.47193759       2.12755545      -1.03866593       0.00000000
Si      -1.88857463      -1.36603053      -0.63127944       0.00000000
Si      -0.02790477       0.00381186       2.42040137       0.00000000
Si       1.94228928      -1.15066044      -0.96602236       0.00000000
Si       1.31838228      -3.35385036      -0.43414810       0.00000000
Si      -1.08590932      -3.53613546      -0.40509068       0.00000000
Si       1.28019852       1.86056235       3.01361147       0.00000000
Si      -2.02741463      -1.17669186      -2.97595332       0.00000000
Si      -2.84236784       2.26918071      -1.32879473       0.00000000
Si       2.05900713      -0.41207184      -3.26330660       0.00000000
