10
Lattice="10.86 0.0 0.0 0.0 10.86 0.0 0.0 0.0 10.86" Properties=species:S:1:pos:R:3:initial_magmoms:R:1 pbc="T T T"
Si      -1.44406506       1.36707852      -1.24670628       0.00000000
Si       1.45809618      -0.87049416      -1.63678662       0.00000000
Si       1.27093494       1.36707852       1.46829372       0.00000000
Si      -1.44406506      -1.34792148       1.46829372       0.00000000
Si      -0.03489318      -2.63647134      -2.34599892       0.00000000
Si       2.43357396       2.58732984       0.17495460       0.00000000
Si       0.27492090       2.45265498      -2.64396474       0.00000000
Si       2.64890604      -2.60872404      -0.16801506       0.00000000
Si      -2.80156506       0.00957852      -2.60420628       0.00000000
Si       2.62843494       0.00957852       2.82579372       0.00000000
