10
Lattice="10.86 0.0 0.0 0.0 10.86 0.0 0.0 0.0 10.86" Properties=species:S:1:pos:R:3:initial_magmoms:R:1 pbc="T T T"
Si       1.31720940      -1.02498852      -1.29318708       0.00000000
Si      -1.39779060       1.69001148      -1.29318708       0.00000000
Si       1.31720940       1.69001148       1.42181292       0.00000000
Si       2.67470940      -2.38248852       0.06431292       0.00000000
Si      -0.11031588      -2.47972896      -2.62269000       0.00000000
Si      -2.65247898      -0.02301234      -2.60179536       0.00000000
Si       2.67470940       0.33251148      -2.65068708       0.00000000
Si       0.02517348      -2.48723322       2.91714804       0.00000000
Si       2.67470940       0.33251148       2.77931292       0.00000000
Si      -0.04029060       3.04751148      -2.65068708       0.00000000
