10
Lattice="16.28999089631971 0.0 0.0 0.0 16.28999089631971 0.0 0.0 0.0 34.54679606040008" Properties=species:S:1:pos:R:3:initial_magmoms:R:1 pbc="T T T"
Si      -0.55995150       1.20791264       1.92263392       0.00000000
Si       1.67737315      -1.68186105       0.02805201       0.00000000
Si      -0.05627706       1.44348852      -1.93510532       0.00000000
Si      -2.03734047      -1.47865959       0.00766939       0.00000000
Si      -2.42443974       2.22691535       0.50286344       0.00000000
Si       0.55159732      -3.30455682      -1.28275780       0.00000000
Si      -2.46586521       1.90437823      -1.84625091       0.00000000
Si      -0.44166981      -2.08598337      -3.14027097       0.00000000
Si       0.58412519      -0.01348812      -3.75482427       0.00000000
Si      -1.71883839      -0.25923906       3.39235705       0.00000000
