10
Lattice="16.28999089631971 0.0 0.0 0.0 16.28999089631971 0.0 0.0 0.0 34.54679606040008" Properties=species:S:1:pos:R:3:initial_magmoms:R:1 pbc="T T T"
Si       2.08148733      -0.01811448      -1.06984578       0.00000000
Si      -1.12577584      -1.62269577      -1.31080982       0.00000000
Si      -1.67737315       1.68186105      -0.02805201       0.00000000
Si       1.01185335      -0.59393340       2.08316126       0.00000000
Si       2.64502359      -2.31132294      -0.47912978       0.00000000
Si      -2.90625722      -2.01166839       0.27440535       0.00000000
Si       0.47646621      -3.37429431      -1.17227709       0.00000000
Si      -3.71471363       0.20320146      -0.02038262       0.00000000
Si      -0.71129633      -1.30925988       3.45533244       0.00000000
Si       3.42406026       1.69844427      -0.07441384       0.00000000
