10
Lattice="16.28999089631971 0.0 0.0 0.0 16.28999089631971 0.0 0.0 0.0 34.54679606040008" Properties=species:S:1:pos:R:3:initial_magmoms:R:1 pbc="T T T"
Si       1.79962146       1.04507518      -1.10632514       0.00000000
Si      -1.21454982       1.45401934       1.41794640       0.00000000
Si       1.48835214      -1.27336177       1.37854230       0.00000000
Si      -1.71898596      -1.18587453      -1.24255982       0.00000000
Si       0.74929113       1.64384671      -3.13788866       0.00000000
Si      -3.29999562       0.83478757      -1.34159245       0.00000000
Si      -2.61750978       2.70701356       0.06446090       0.00000000
Si      -2.57686623       0.09914257       2.76838832       0.00000000
Si       0.13815549      -2.61465970       2.77087569       0.00000000
Si       0.13820436       2.81431579       2.77232666       0.00000000
