10
Lattice="16.28999089631971 0.0 0.0 0.0 16.28999089631971 0.0 0.0 0.0 34.54679606040008" Properties=species:S:1:pos:R:3:initial_magmoms:R:1 pbc="T T T"
Si       1.36117611       1.35077006      -1.38363450       0.00000000
Si      -1.35633798      -1.35898089      -1.38218354       0.00000000
Si      -1.27441557       1.52083766       1.40812819       0.00000000
Si       1.22903163      -1.58018280       1.40951007       0.00000000
Si       2.69996976      -2.72307291      -0.03793240       0.00000000
Si       2.73885399       2.68506767      -0.02356093       0.00000000
Si      -2.69592984       0.15106694       2.72961298       0.00000000
Si      -2.72846097      -2.71030155       0.00431835       0.00000000
Si      -2.72756502       2.72523881      -0.00742757       0.00000000
Si       0.00027693       2.71020314      -2.74412264       0.00000000
