10
Lattice="16.28999089631971 0.0 0.0 0.0 16.28999089631971 0.0 0.0 0.0 34.54679606040008" Properties=species:S:1:pos:R:3:initial_magmoms:R:1 pbc="T T T"
Si       0.62731161       1.81284894      -1.35022773       0.00000000
Si      -1.29599982      -1.89296316      -0.53468106       0.00000000
Si       1.72771740      -0.71636904       1.44657880       0.00000000
Si      -1.69575642       0.61110306       1.54078797       0.00000000
Si       1.82847105       0.32312844      -2.81877831       0.00000000
Si      -3.28390110      -0.98145621       0.91828890       0.00000000
Si       2.39032944      -2.67298700       0.26255580       0.00000000
Si       0.09225027      -3.63607461       0.30905581       0.00000000
Si       0.42489207      -1.68780690       3.20981371       0.00000000
Si       3.57335811       0.82878633      -0.44088646       0.00000000
