10
Lattice="16.28999089631971 0.0 0.0 0.0 16.28999089631971 0.0 0.0 0.0 34.54679606040008" Properties=species:S:1:pos:R:3:initial_magmoms:R:1 pbc="T T T"
Si      -1.53821583       1.64405196       0.46582926       0.00000000
Si       1.25136522      -0.11976408       1.94408749       0.00000000
Si      -0.69322095      -2.16660616      -0.49754323       0.00000000
Si       1.30282533       0.97143786      -1.76323491       0.00000000
Si      -0.33264180      -1.94826771      -2.90075790       0.00000000
Si      -2.12064849       2.29890996      -1.66902574       0.00000000
Si       2.85496911       2.14664733      -0.27571813       0.00000000
Si       0.53054901      -2.09955017       2.91367841       0.00000000
Si      -0.42489207       1.68780690      -3.20981371       0.00000000
Si       3.39170832       0.46275003       1.28172140       0.00000000
