10
Lattice="16.28999089631971 0.0 0.0 0.0 16.28999089631971 0.0 0.0 0.0 34.54679606040008" Properties=species:S:1:pos:R:3:initial_magmoms:R:1 pbc="T T T"
Si       1.34434854       1.35110889      -1.36455084       0.00000000
Si      -1.35275418      -1.36029645      -1.35438026       0.00000000
Si       1.35365013      -1.35602847       1.35817350       0.00000000
Si      -1.36045935       1.35645201       1.35710255       0.00000000
Si       2.71130760      -2.71401011      -0.00659844       0.00000000
Si       2.71246419       0.00158013       2.71392872       0.00000000
Si      -0.00241092      -2.71388794       2.71420510       0.00000000
Si      -2.71507059      -2.71517322      -0.00393834       0.00000000
Si      -0.00228060       2.71621089       2.71413600       0.00000000
Si       2.71423980       2.71686249      -0.00431835       0.00000000
