10
Lattice="16.28999089631971 0.0 0.0 0.0 16.28999089631971 0.0 0.0 0.0 34.54679606040008" Properties=species:S:1:pos:R:3:initial_magmoms:R:1 pbc="T T T"
Si       0.50896476      -1.73118717       1.56082512       0.00000000
Si       1.04101245       2.03576130       0.77060126       0.00000000
Si      -2.37835629       0.25389594      -0.39048265       0.00000000
Si       0.70578054      -1.04505237      -2.12556191       0.00000000
Si       3.05196408       1.00688490       1.46367947       0.00000000
Si       1.94685048      -0.50547870       2.95972931       0.00000000
Si      -2.48036427       0.81979425      -2.72394730       0.00000000
Si      -1.41514488      -2.52104040       2.69751898       0.00000000
Si      -3.20657247       2.33422668       0.29067690       0.00000000
Si      -0.33456402       3.11683086       2.48191231       0.00000000
