10
Lattice="16.28999089631971 0.0 0.0 0.0 16.28999089631971 0.0 0.0 0.0 34.54679606040008" Properties=species:S:1:pos:R:3:initial_magmoms:R:1 pbc="T T T"
Si       1.99816398       0.57710583      -1.09268122       0.00000000
Si      -0.70156469       2.24117820       0.36173970       0.00000000
Si      -1.32516544      -0.92903499      -1.74523602       0.00000000
Si       0.43342803      -1.31232240       1.94882040       0.00000000
Si      -2.47740668      -1.51159797       1.60076124       0.00000000
Si       1.34788347       3.19055940       1.13317009       0.00000000
Si       2.27092374      -0.11660382       2.84828129       0.00000000
Si       1.41573132       1.23196383      -3.22753623       0.00000000
Si      -1.29538243      -3.28421599      -1.28894168       0.00000000
Si      -3.52799765       0.03929148      -1.47901826       0.00000000
