10
Lattice="16.28999089631971 0.0 0.0 0.0 16.28999089631971 0.0 0.0 0.0 34.54679606040008" Properties=species:S:1:pos:R:3:initial_magmoms:R:1 pbc="T T T"
Si      -1.35101115      -1.35511623       1.40133284       0.00000000
Si       1.36427121       1.36044306       1.40399294       0.00000000
Si       1.45639116      -1.37744982      -1.50577822       0.00000000
Si      -1.39862682       1.42517952      -1.58386093       0.00000000
Si      -2.69734707      -2.70788670       0.01634755       0.00000000
Si      -2.69923671       2.71476108       0.02417586       0.00000000
Si       2.70932022       2.71160082       0.03526539       0.00000000
Si       2.73300588      -2.70985779       0.01825454       0.00000000
Si      -2.70876636       0.00102627       2.76299556       0.00000000
Si       0.00594585      -2.71329498       2.76278828       0.00000000
