10
Lattice="16.28999089631971 0.0 0.0 0.0 16.28999089631971 0.0 0.0 0.0 34.54679606040008" Properties=species:S:1:pos:R:3:initial_magmoms:R:1 pbc="T T T"
Si       1.31492880      -0.41241393      -1.90346043       0.00000000
Si      -0.09563859       1.39522221       1.95503883       0.00000000
Si      -2.05413642       0.73710621      -1.06687475       0.00000000
Si       0.12619863      -2.33261397       0.68147048       0.00000000
Si       2.30496984       1.14152175       0.41984745       0.00000000
Si      -1.62924435      -0.12479769       2.91682217       0.00000000
Si      -0.40200462      -1.85328072      -2.82368395       0.00000000
Si      -0.36584082      -2.06607699       2.95313087       0.00000000
Si      -1.13570622      -3.30364458      -1.02061657       0.00000000
Si       2.14897680       0.96283674       2.88687008       0.00000000
