10
Lattice="16.28999089631971 0.0 0.0 0.0 16.28999089631971 0.0 0.0 0.0 34.54679606040008" Properties=species:S:1:pos:R:3:initial_magmoms:R:1 pbc="T T T"
Si      -1.35702216       1.35300409      -1.36280277       0.00000000
Si       1.35944937      -1.36127385      -1.36231912       0.00000000
Si       1.35633798       1.35898089       1.38218354       0.00000000
Si      -1.37212299      -1.35132066       1.38650189       0.00000000
Si       2.58536961      -0.22120191       2.79169360       0.00000000
Si      -2.71197549       2.71312298       0.00031092       0.00000000
Si       2.71751409       2.70975095      -0.00145097       0.00000000
Si       2.71565703      -2.71513575      -0.00777303       0.00000000
Si      -2.71601541      -2.71516833       0.00020728       0.00000000
Si       0.00110772       2.71240622      -2.71969804       0.00000000
