10
Lattice="16.28999089631971 0.0 0.0 0.0 16.28999089631971 0.0 0.0 0.0 34.54679606040008" Properties=species:S:1:pos:R:3:initial_magmoms:R:1 pbc="T T T"
Si       0.28496097       0.01400940      -2.33571019       0.00000000
Si      -1.95746993      -0.69886869       1.24422571       0.00000000
Si       0.68248584       1.87222599       1.40605335       0.00000000
Si       1.58100966      -2.02066210       0.09903263       0.00000000
Si       1.89752436       1.78717590      -1.69092842       0.00000000
Si      -0.65598201      -2.10216519       2.73675177       0.00000000
Si       2.08544580       0.61923177       2.75953885       0.00000000
Si       3.29999562      -0.83478757       1.34159245       0.00000000
Si       1.71388719       3.51966627       0.08821464       0.00000000
Si       0.52606926      -3.66753779       1.38695933       0.00000000
