10
Lattice="16.28999089631971 0.0 0.0 0.0 16.28999089631971 0.0 0.0 0.0 34.54679606040008" Properties=species:S:1:pos:R:3:initial_magmoms:R:1 pbc="T T T"
Si      -1.29013542       1.49108886      -1.28009770       0.00000000
Si      -0.58981203      -2.03634774      -1.10287253       0.00000000
Si       2.37905676       0.25212033       0.05092201       0.00000000
Si      -0.37864476      -0.27228735       2.39381793       0.00000000
Si       0.40436667       3.05303175       1.74084857       0.00000000
Si      -0.42243228       3.50436900      -0.46420556       0.00000000
Si      -0.59456871       0.73407627      -3.53251551       0.00000000
Si       3.11803632      -1.99529694       0.38046408       0.00000000
Si       2.99100690       0.77665833      -2.11429965       0.00000000
Si       0.96392817       1.44427140       3.38924987       0.00000000
