10
Lattice="16.28999089631971 0.0 0.0 0.0 16.28999089631971 0.0 0.0 0.0 34.54679606040008" Properties=species:S:1:pos:R:3:initial_magmoms:R:1 pbc="T T T"
Si      -2.18729088       0.17303238       0.87178889       0.00000000
Si       0.26946918      -1.94081829      -1.33475076       0.00000000
Si       1.52932149       0.56443221       1.73317918       0.00000000
Si       0.55763928       1.89929997      -1.37416867       0.00000000
Si      -1.77503985       1.74534318       2.64034400       0.00000000
Si       3.68895195      -0.01707192       0.92844566       0.00000000
Si       0.59976522       2.48513724       2.81812192       0.00000000
Si      -0.58785723       1.77627789      -3.35529035       0.00000000
Si      -3.68857728       0.79157997      -0.79495677       0.00000000
Si       2.33152254      -1.87446912      -2.46014782       0.00000000
