10
Lattice="16.28999089631971 0.0 0.0 0.0 16.28999089631971 0.0 0.0 0.0 34.54679606040008" Properties=species:S:1:pos:R:3:initial_magmoms:R:1 pbc="T T T"
Si      -1.35674523       1.35713619      -1.35758620       0.00000000
Si       1.35826020       1.35645201       1.35824259       0.00000000
Si       1.35799956      -1.35749457      -1.35779348       0.00000000
Si      -1.35887922      -1.35855342       1.35751711       0.00000000
Si      -0.00081450      -2.71510317      -2.71354871       0.00000000
Si      -2.71435383       2.71433754       0.00010364       0.00000000
Si      -2.71371852      -0.00052128       2.71565606       0.00000000
Si      -2.71492398      -0.00262269      -2.71461966       0.00000000
Si       0.00021177       2.71495656      -2.71465420       0.00000000
Si      -2.71438641      -2.71533123      -0.00024183       0.00000000
