10
Lattice="16.28999089631971 0.0 0.0 0.0 16.28999089631971 0.0 0.0 0.0 34.54679606040008" Properties=species:S:1:pos:R:3:initial_magmoms:R:1 pbc="T T T"
Si      -1.24467003       1.45824822       1.31215714       0.00000000
Si      -1.37767788      -1.33429761      -1.36007357       0.00000000
Si       1.33830495       1.38096846      -1.36173182       0.00000000
Si       1.26967518      -1.49216400       1.49135147       0.00000000
Si      -2.53040715       0.19841220       2.81072890       0.00000000
Si       2.69316054      -2.68289784      -0.00286739       0.00000000
Si      -0.02016702      -2.68856024      -2.72035443       0.00000000
Si       2.69540856       0.02627577      -2.72063080       0.00000000
Si      -2.73885399      -2.68506767       0.02356093       0.00000000
Si       2.69291619       2.74131378       0.00407652       0.00000000
