10
Lattice="16.28999089631971 0.0 0.0 0.0 16.28999089631971 0.0 0.0 0.0 34.54679606040008" Properties=species:S:1:pos:R:3:initial_magmoms:R:1 pbc="T T T"
Si       0.53673921      -1.68389730       1.55743953       0.00000000
Si      -1.23903369       1.89789903       0.79312579       0.00000000
Si       1.83619251       1.30367241      -0.84473873       0.00000000
Si      -1.55214378      -1.17520947      -1.48751678       0.00000000
Si       0.29349693       0.36994590      -3.37498203       0.00000000
Si      -1.60360389      -2.26641141       2.21980562       0.00000000
Si      -2.85496911      -2.14664733       0.27571813       0.00000000
Si       1.83930390      -3.09256528       0.16879574       0.00000000
Si       0.19885203       3.12360750       2.19202998       0.00000000
Si      -3.16314333       1.10804580       1.92981965       0.00000000
