10
Lattice="16.28999089631971 0.0 0.0 0.0 16.28999089631971 0.0 0.0 0.0 34.54679606040008" Properties=species:S:1:pos:R:3:initial_magmoms:R:1 pbc="T T T"
Si       0.77647914      -0.00899208      -2.20484685       0.00000000
Si       2.08885041       0.58671693       0.93556231       0.00000000
Si      -1.83619251      -1.30367241       0.84473873       0.00000000
Si       1.17529092       2.57263083      -0.05724407       0.00000000
Si      -1.54269558      -0.93372651      -2.53024330       0.00000000
Si      -3.07522620       0.59422662       1.63786452       0.00000000
Si       0.54483534       2.75688702      -2.37105158       0.00000000
Si      -0.53222688       3.33229869       1.54071887       0.00000000
Si      -2.87841042       1.28036142      -2.04852251       0.00000000
Si      -1.63734048       1.81993509       3.03676871       0.00000000
