10
Lattice="16.28999089631971 0.0 0.0 0.0 16.28999089631971 0.0 0.0 0.0 34.54679606040008" Properties=species:S:1:pos:R:3:initial_magmoms:R:1 pbc="T T T"
Si       0.24037524      -2.24096643      -0.88971868       0.00000000
Si       2.31917472       0.92473443       0.32539645       0.00000000
Si      -1.33571484       2.21408793       0.48172079       0.00000000
Si      -1.74488706      -0.50565789      -2.37789185       0.00000000
Si      -1.84564071      -1.54515537       1.88746526       0.00000000
Si       1.54269558       0.93372651       2.53024330       0.00000000
Si      -2.94604650       0.98406261      -0.90934127       0.00000000
Si      -0.29349693      -0.36994590       3.37498203       0.00000000
Si       0.79276914       2.31651945      -2.55532429       0.00000000
Si      -3.57335811      -0.82878633       0.44088646       0.00000000
