10
Lattice="16.28999089631971 0.0 0.0 0.0 16.28999089631971 0.0 0.0 0.0 34.54679606040008" Properties=species:S:1:pos:R:3:initial_magmoms:R:1 pbc="T T T"
Si       1.34659982       1.33734384      -1.36487558       0.00000000
Si      -1.35802418       1.35475785       1.35637706       0.00000000
Si       1.35521723      -1.36010097       1.35534066       0.00000000
Si      -1.35148749      -1.35597960      -1.39053350       0.00000000
Si       2.67689009      -0.11062539      -2.70910944       0.00000000
Si      -2.71065993       2.71057455      -0.00483655       0.00000000
Si       0.00691185       2.51154333      -2.89972840       0.00000000
Si       0.00031603       2.71254564       2.71306505       0.00000000
Si      -2.71447179      -0.00218286       2.71323779       0.00000000
Si       2.71502498      -0.00221544       2.71285777       0.00000000
