10
Lattice="16.28999089631971 0.0 0.0 0.0 16.28999089631971 0.0 0.0 0.0 34.54679606040008" Properties=species:S:1:pos:R:3:initial_magmoms:R:1 pbc="T T T"
Si       1.35601218       1.35720135       1.35734438       0.00000000
Si       1.35708732      -1.35718506      -1.35713709       0.00000000
Si      -1.35777150       1.35783666      -1.35724074       0.00000000
Si      -1.35749457      -1.35824391       1.35848442       0.00000000
Si      -0.00042354       2.71373481       2.71389417       0.00000000
Si      -0.00055386       2.71490769      -2.71337597       0.00000000
Si       2.71471221       2.71494027       0.00024183       0.00000000
Si      -2.71554300       0.00026064      -2.71441238       0.00000000
Si       2.71487511      -2.71521720       0.00034547       0.00000000
Si       2.71544526       0.00167787      -2.71489603       0.00000000
