10
Lattice="16.28999089631971 0.0 0.0 0.0 16.28999089631971 0.0 0.0 0.0 34.54679606040008" Properties=species:S:1:pos:R:3:initial_magmoms:R:1 pbc="T T T"
Si      -1.34659982      -1.33734384       1.36487558       0.00000000
Si      -1.33968797       1.17419949      -1.53485282       0.00000000
Si       1.36875096       1.37635839       1.35958992       0.00000000
Si       1.33029027      -1.44796923      -1.34423386       0.00000000
Si       0.54996669       1.83462867      -2.78251939       0.00000000
Si       2.36169162       0.19947105      -2.66207257       0.00000000
Si      -2.69808731      -2.69332344      -0.02565792       0.00000000
Si      -2.68509227       2.71138905      -0.00742066       0.00000000
Si       0.00861741      -2.69744481       2.72021624       0.00000000
Si      -2.70462400       0.01741401       2.72125265       0.00000000
