10
Lattice="16.28999089631971 0.0 0.0 0.0 16.28999089631971 0.0 0.0 0.0 34.54679606040008" Properties=species:S:1:pos:R:3:initial_magmoms:R:1 pbc="T T T"
Si      -0.89489115       1.52645186      -1.58849712       0.00000000
Si      -1.69127667       1.30287420       1.06307460       0.00000000
Si       0.02689479      -2.35584351       0.44969590       0.00000000
Si       0.99219132       2.30990312      -0.11217351       0.00000000
Si       2.48839524      -0.47829069      -0.21256655       0.00000000
Si       0.64607769      -2.68121997      -1.83799422       0.00000000
Si      -0.15397308       2.62075216       2.25459426       0.00000000
Si       2.40122745      -1.14059322      -2.45254752       0.00000000
Si       3.45743847       1.25203311       1.17600814       0.00000000
Si      -2.88280872       2.58149000      -0.58574125       0.00000000
