10
Lattice="16.28999089631971 0.0 0.0 0.0 16.28999089631971 0.0 0.0 0.0 34.54679606040008" Properties=species:S:1:pos:R:3:initial_magmoms:R:1 pbc="T T T"
Si       0.98274312      -0.10655289      -2.14052068       0.00000000
Si      -2.24893224       0.73177938      -0.33810968       0.00000000
Si       0.27870561      -2.29387635       0.62146266       0.00000000
Si       0.72513306       1.64388906       1.64183740       0.00000000
Si      -2.86088238       0.20724138       1.82711197       0.00000000
Si       3.15494946      -0.34694442      -1.28085773       0.00000000
Si       2.57548158      -2.27911761      -0.06691718       0.00000000
Si      -2.12190282      -2.04017589       2.15665404       0.00000000
Si       0.74645667       3.56796190       0.24787340       0.00000000
Si      -1.32023934       1.66127049       2.98691766       0.00000000
