10
Lattice="16.28999089631971 0.0 0.0 0.0 16.28999089631971 0.0 0.0 0.0 34.54679606040008" Properties=species:S:1:pos:R:3:initial_magmoms:R:1 pbc="T T T"
Si       1.35703845       1.35668007       1.35696436       0.00000000
Si      -1.35698958       1.35532800      -1.35986629       0.00000000
Si      -1.35798327      -1.35815269       1.35648071       0.00000000
Si       1.35620766      -1.36027690      -1.35900262       0.00000000
Si       0.01361844      -2.71654073      -2.70866379       0.00000000
Si       2.71348606       2.71362078       0.00010364       0.00000000
Si      -0.00078192       2.71409319       2.71430874       0.00000000
Si       2.71388592      -0.00104256       2.71458511       0.00000000
Si      -2.71560816       2.71334385      -0.00179643       0.00000000
Si      -2.71521720      -0.00079821       2.71420510       0.00000000
