10
Lattice="16.28999089631971 0.0 0.0 0.0 16.28999089631971 0.0 0.0 0.0 34.54679606040008" Properties=species:S:1:pos:R:3:initial_magmoms:R:1 pbc="T T T"
Si      -1.09882566      -1.39318270       1.45110240       0.00000000
Si       0.86390757      -1.62339624      -1.45376454       0.00000000
Si       1.60544466       1.28720322       1.20968925       0.00000000
Si      -1.64900412      -1.02552066      -1.54932103       0.00000000
Si      -2.47994073      -0.00350235       2.78053640       0.00000000
Si      -1.97662860      -3.19367798       0.06781540       0.00000000
Si       2.72839581      -2.64239895      -0.03399407       0.00000000
Si       0.24408936       2.69630451       2.75535523       0.00000000
Si       0.24856911      -2.72540249       2.79828656       0.00000000
Si       3.01082256       2.59610472      -0.31133590       0.00000000
