10
Lattice="16.28999089631971 0.0 0.0 0.0 16.28999089631971 0.0 0.0 0.0 34.54679606040008" Properties=species:S:1:pos:R:3:initial_magmoms:R:1 pbc="T T T"
Si       0.11898216      -2.22710364       0.77523054       0.00000000
Si       0.46524240       0.09712098      -2.32468975       0.00000000
Si       2.14568200       1.00589121       0.67970859       0.00000000
Si      -2.32661925       0.70369542       0.51084376       0.00000000
Si       2.14061256       1.96169067      -2.15561764       0.00000000
Si      -0.97614567      -3.38608827      -0.98202777       0.00000000
Si      -2.29022739       1.20762657       2.86358553       0.00000000
Si       1.79406561       3.29380542       1.06994942       0.00000000
Si      -0.58388247      -2.41388478       3.05276389       0.00000000
Si       2.94541512      -0.02521692       2.61598850       0.00000000
