10
Lattice="16.28999089631971 0.0 0.0 0.0 16.28999089631971 0.0 0.0 0.0 34.54679606040008" Properties=species:S:1:pos:R:3:initial_magmoms:R:1 pbc="T T T"
Si      -2.08885041      -0.58671693      -0.93556231       0.00000000
Si      -0.91355949       1.98591390      -0.99280638       0.00000000
Si       0.03639186       0.50393115       2.35274177       0.00000000
Si       2.32661925      -0.70369542      -0.51084376       0.00000000
Si      -1.31237127      -0.59570901      -3.14040916       0.00000000
Si       2.44560141      -2.93079906       0.26438678       0.00000000
Si      -2.62107729       2.74558176       0.60515656       0.00000000
Si       0.44981577       2.90273139       2.69306245       0.00000000
Si       0.75675195       3.67440498      -1.39952604       0.00000000
Si       1.49537313      -0.97643889       3.59590892       0.00000000
