10
Lattice="16.28999089631971 0.0 0.0 0.0 16.28999089631971 0.0 0.0 0.0 34.54679606040008" Properties=species:S:1:pos:R:3:initial_magmoms:R:1 pbc="T T T"
Si      -0.46524240      -0.09712098       2.32468975       0.00000000
Si       1.43412666      -1.81758933      -0.74966589       0.00000000
Si      -1.84857291      -0.25633944      -1.62850233       0.00000000
Si       1.67537016       1.86456969       0.16907211       0.00000000
Si       0.08866647       0.51940665      -3.21143741       0.00000000
Si       1.68043960       0.90877023       3.00439835       0.00000000
Si       1.75136463      -1.20428712      -3.09477281       0.00000000
Si      -0.02072088      -3.73581828      -0.75719710       0.00000000
Si      -0.34626024      -2.32422462       3.09992029       0.00000000
Si       0.36046512       3.74306733       1.28279235       0.00000000
