10
Lattice="16.28999089631971 0.0 0.0 0.0 16.28999089631971 0.0 0.0 0.0 34.54679606040008" Properties=species:S:1:pos:R:3:initial_magmoms:R:1 pbc="T T T"
Si      -2.31568866       0.05709645       0.15625525       0.00000000
Si       0.66603294       2.24037999       0.22296515       0.00000000
Si       0.92092257      -0.95601123      -1.98934382       0.00000000
Si       0.74059227      -1.51389486       1.70450532       0.00000000
Si       2.39549337       2.17521999      -1.42809625       0.00000000
Si       1.37332845       0.98670159      -3.15298420       0.00000000
Si      -2.39420646      -2.04812541       1.76706961       0.00000000
Si       2.29560309      -2.84765490       0.49180846       0.00000000
Si       0.35385138       2.44837071       2.74502086       0.00000000
Si      -3.17438343      -0.39514653      -1.94913132       0.00000000
