10
Lattice="16.28999089631971 0.0 0.0 0.0 16.28999089631971 0.0 0.0 0.0 34.54679606040008" Properties=species:S:1:pos:R:3:initial_magmoms:R:1 pbc="T T T"
Si      -0.34031439       1.89638406      -1.45438638       0.00000000
Si       0.95641848       1.30745169       1.83280671       0.00000000
Si       1.79996355      -0.97844256      -1.38377269       0.00000000
Si      -1.59306426      -1.27505088       1.58076696       0.00000000
Si       0.04642650      -2.06588151      -2.49490191       0.00000000
Si       2.40711931       2.65360842       0.67403812       0.00000000
Si       2.46989682      -2.76480396       0.02401004       0.00000000
Si      -2.64534939       2.70125667       0.19011112       0.00000000
Si       1.51853751       3.38524119      -1.31882468       0.00000000
Si       2.42704272       0.03782538       3.11372662       0.00000000
