10
Lattice="16.28999089631971 0.0 0.0 0.0 16.28999089631971 0.0 0.0 0.0 34.54679606040008" Properties=species:S:1:pos:R:3:initial_magmoms:R:1 pbc="T T T"
Si      -1.45854144       1.24087446      -1.35350968       0.00000000
Si      -1.01367783      -1.62699633       1.37427232       0.00000000
Si       1.27817856      -1.48032117      -1.35278420       0.00000000
Si       0.92984949       1.53197676       1.60628873       0.00000000
Si       2.57046426       2.68364718       0.34850827       0.00000000
Si      -0.08154774       2.59289559      -2.71372144       0.00000000
Si      -2.63595006      -2.67393834      -0.00317831       0.00000000
Si       2.63831835      -0.12504204      -2.72042352       0.00000000
Si      -1.35902583      -0.73223550       3.56398766       0.00000000
Si       2.55477699      -2.94073596       0.02549555       0.00000000
