10
Lattice="16.28999089631971 0.0 0.0 0.0 16.28999089631971 0.0 0.0 0.0 34.54679606040008" Properties=species:S:1:pos:R:3:initial_magmoms:R:1 pbc="T T T"
Si      -0.24219972      -2.35310679       0.10256949       0.00000000
Si      -0.40262364       0.81445113       2.21206713       0.00000000
Si       2.39564065       0.25317918      -0.24604242       0.00000000
Si      -1.43163036       1.12107780      -1.63613718       0.00000000
Si       0.97433603       2.69457777       1.88663613       0.00000000
Si       1.09594137      -3.01408983      -1.69072114       0.00000000
Si       2.92285673       1.30030038       1.80786939       0.00000000
Si       3.09028535      -1.93215690      -0.90402106       0.00000000
Si      -2.57492772      -2.70146844       0.44323564       0.00000000
Si      -1.84321350       3.42665037      -1.09240485       0.00000000
