10
Lattice="16.28999089631971 0.0 0.0 0.0 16.28999089631971 0.0 0.0 0.0 34.54679606040008" Properties=species:S:1:pos:R:3:initial_magmoms:R:1 pbc="T T T"
Si       1.35762556      -1.35070164      -1.35658435       0.00000000
Si      -1.35695700      -1.35578412       1.35637706       0.00000000
Si      -1.35695700       1.35638100      -1.35955537       0.00000000
Si       1.35816802       1.35834069       1.35641161       0.00000000
Si      -2.69954622       0.00011718      -2.70921654       0.00000000
Si      -0.00490329      -2.70715365      -2.70655643       0.00000000
Si      -2.71409319       0.00120572       2.71365235       0.00000000
Si       0.00103842      -2.71370223       2.71413600       0.00000000
Si       2.71356281       2.71541987      -0.00148551       0.00000000
Si       2.71488230      -2.71428867      -0.00165825       0.00000000
