10
Lattice="16.28999089631971 0.0 0.0 0.0 16.28999089631971 0.0 0.0 0.0 34.54679606040008" Properties=species:S:1:pos:R:3:initial_magmoms:R:1 pbc="T T T"
Si       0.50760033       1.01276559      -2.06106300       0.00000000
Si       0.99998350       1.03839157       1.88342328       0.00000000
Si      -1.11307941      -2.09165229      -0.14568392       0.00000000
Si      -2.15256060       0.94102443       0.42834596       0.00000000
Si      -3.12160383      -0.78929937      -0.96022873       0.00000000
Si      -2.49670314       0.03355740       2.58638188       0.00000000
Si      -2.08512000      -2.27201517       2.04264955       0.00000000
Si      -0.90709236       2.95030538      -2.16377069       0.00000000
Si       0.97020049       3.39357257       1.42712894       0.00000000
Si      -0.46271745       0.69074487       3.75458244       0.00000000
