10
Lattice="16.28999089631971 0.0 0.0 0.0 16.28999089631971 0.0 0.0 0.0 34.54679606040008" Properties=species:S:1:pos:R:3:initial_magmoms:R:1 pbc="T T T"
Si       1.35898478      -1.72198332      -0.87659089       0.00000000
Si       1.11307941       2.09165229       0.14568392       0.00000000
Si      -0.97204059      -0.18036288       2.18833347       0.00000000
Si      -2.00852442       1.30235292      -0.81454481       0.00000000
Si      -1.03948119       3.03267672       0.57402988       0.00000000
Si      -2.84035698      -1.45124352       1.46392130       0.00000000
Si       3.50897093      -1.14013710      -0.08881986       0.00000000
Si      -1.80840177      -3.23123553       0.17511781       0.00000000
Si      -1.38362373       2.12520969       2.73206580       0.00000000
Si      -2.09569221       0.64005039      -3.05452577       0.00000000
