10
Lattice="16.28999089631971 0.0 0.0 0.0 16.28999089631971 0.0 0.0 0.0 34.54679606040008" Properties=species:S:1:pos:R:3:initial_magmoms:R:1 pbc="T T T"
Si       1.73012832       0.81513531       1.41420640       0.00000000
Si       1.41162624      -0.40428522      -1.97048125       0.00000000
Si      -0.93460617      -1.84293657       1.38025034       0.00000000
Si      -1.81600920       1.73100798       0.04629273       0.00000000
Si       0.40918851       2.19928347       2.77676389       0.00000000
Si      -2.33225559      -0.51969987       2.75745568       0.00000000
Si       2.88901521       2.28228701      -0.05551673       0.00000000
Si       1.02452697       3.30128972      -1.47528720       0.00000000
Si       2.22008265      -2.61915507      -1.67569328       0.00000000
Si      -1.94380425      -3.30313959      -0.16675748       0.00000000
