10
Lattice="16.28999089631971 0.0 0.0 0.0 16.28999089631971 0.0 0.0 0.0 34.54679606040008" Properties=species:S:1:pos:R:3:initial_magmoms:R:1 pbc="T T T"
Si      -0.66993327       1.78636140      -1.40778273       0.00000000
Si       1.30255019       1.26543978       1.56228442       0.00000000
Si      -1.40537790      -1.30890150       1.52102515       0.00000000
Si       0.92007239      -0.92883951      -2.15420122       0.00000000
Si       2.67564895       0.87364899      -2.04199316       0.00000000
Si      -2.42347032       0.69892245      -2.51891195       0.00000000
Si      -2.46989682       2.76480396      -0.02401004       0.00000000
Si       3.19220485       1.92586896       0.31461785       0.00000000
Si      -0.86845950      -0.63483759      -3.73160881       0.00000000
Si      -3.01082256      -2.59610472       0.31133590       0.00000000
