10
Lattice="16.28999089631971 0.0 0.0 0.0 16.28999089631971 0.0 0.0 0.0 34.54679606040008" Properties=species:S:1:pos:R:3:initial_magmoms:R:1 pbc="T T T"
Si      -1.36638891       1.75182660      -0.73612354       0.00000000
Si       2.11278042      -0.60582510      -0.93722055       0.00000000
Si      -1.75557656      -1.80248850      -0.11220806       0.00000000
Si       0.51655590       1.05221997       2.35661101       0.00000000
Si       2.32828083      -0.58293765       2.47705783       0.00000000
Si      -2.67564895      -0.87364899       2.04199316       0.00000000
Si       2.51191800      -2.31542802       0.69791476       0.00000000
Si      -3.34558223       0.91271241       0.63421044       0.00000000
Si      -1.37309876       0.39179079       3.60427758       0.00000000
Si       1.70165340      -1.51039251      -3.18214171       0.00000000
