10
Lattice="16.28999089631971 0.0 0.0 0.0 16.28999089631971 0.0 0.0 0.0 34.54679606040008" Properties=species:S:1:pos:R:3:initial_magmoms:R:1 pbc="T T T"
Si      -1.41403064       1.34530965      -1.25805337       0.00000000
Si      -1.35757602      -1.32683679       1.36365608       0.00000000
Si       1.35749457       1.38518757       1.36054687       0.00000000
Si       1.27829259      -1.50371361      -1.54892029       0.00000000
Si       0.30911904       2.06063613      -2.63022455       0.00000000
Si       2.16218799       0.39793212      -2.78353161       0.00000000
Si      -2.72040973      -0.08873163      -2.44611766       0.00000000
Si       2.72199384      -2.67713118      -0.02474934       0.00000000
Si      -0.00695583      -2.68273494       2.72075863       0.00000000
Si      -2.70048632      -2.70451467      -0.00642916       0.00000000
