10
Lattice="16.28999089631971 0.0 0.0 0.0 16.28999089631971 0.0 0.0 0.0 34.54679606040008" Properties=species:S:1:pos:R:3:initial_magmoms:R:1 pbc="T T T"
Si      -1.35627077       1.35760860      -1.35806986       0.00000000
Si      -1.35772058      -1.35658233       1.35786258       0.00000000
Si       1.35753476       1.35817875       1.35786258       0.00000000
Si       1.36173921      -1.35790182      -1.35765530       0.00000000
Si       2.71235940      -2.71379997      -0.00055275       0.00000000
Si      -2.71440065      -2.71218726      -0.00010364       0.00000000
Si      -0.00592751       2.72300382      -2.70517456       0.00000000
Si      -2.71879895       0.00623907      -2.70940309       0.00000000
Si       0.00035537      -2.71402803       2.71465420       0.00000000
Si       2.71385808       2.71586880      -0.00027637       0.00000000
