10
Lattice="16.28999089631971 0.0 0.0 0.0 16.28999089631971 0.0 0.0 0.0 34.54679606040008" Properties=species:S:1:pos:R:3:initial_magmoms:R:1 pbc="T T T"
Si       1.36703237       1.34951247      -1.38653643       0.00000000
Si      -1.34481375      -1.36899531      -1.38985293       0.00000000
Si       1.33630943      -1.38324906       1.39693503       0.00000000
Si      -1.41266784       1.43969391       1.67907887       0.00000000
Si      -0.22984375      -2.69291619       2.65264267       0.00000000
Si      -2.69358312       2.71652040       0.00093276       0.00000000
Si       2.71092479       2.71336014      -0.00024183       0.00000000
Si       2.71367780      -2.71456560      -0.03147215       0.00000000
Si      -2.70495354      -2.72427444      -0.02221360       0.00000000
Si      -2.70347115      -0.01262475      -2.74795733       0.00000000
