10
Lattice="16.28999089631971 0.0 0.0 0.0 16.28999089631971 0.0 0.0 0.0 34.54679606040008" Properties=species:S:1:pos:R:3:initial_magmoms:R:1 pbc="T T T"
Si       1.47678624      -1.58702067       1.05433426       0.00000000
Si       1.32654357       1.28124108      -1.59744474       0.00000000
Si      -1.35006633      -1.31779584      -1.55277571       0.00000000
Si      -0.96427026       1.32589197       1.81622972       0.00000000
Si       1.48740732       2.19729294       2.11885983       0.00000000
Si       3.00679191       2.10869163       0.00186553       0.00000000
Si      -2.75174427       2.73453714       0.43508259       0.00000000
Si      -2.91621951      -2.62746297      -0.29706807       0.00000000
Si       0.18448425      -3.33280368       2.09412431       0.00000000
Si       0.02730204      -2.64911238      -2.98118289       0.00000000
