10
Lattice="16.28999089631971 0.0 0.0 0.0 16.28999089631971 0.0 0.0 0.0 34.54679606040008" Properties=species:S:1:pos:R:3:initial_magmoms:R:1 pbc="T T T"
Si       0.82821618      -2.08033074      -0.68115956       0.00000000
Si      -1.29534822      -0.40088061       1.91365174       0.00000000
Si       1.35625653       1.77595209       0.72399761       0.00000000
Si      -1.33625241       1.69257987      -1.09561770       0.00000000
Si      -0.74111355       2.92662882       0.94267895       0.00000000
Si       0.72620820      -1.51443243      -3.01462420       0.00000000
Si       2.87200845       0.78260418       2.19123541       0.00000000
Si      -1.98999292       1.78445547       2.57163039       0.00000000
Si      -3.28969219      -1.48281354       1.12695166       0.00000000
Si      -0.98521920      -3.71555352      -0.70530778       0.00000000
