10
Lattice="16.28999089631971 0.0 0.0 0.0 16.28999089631971 0.0 0.0 0.0 34.54679606040008" Properties=species:S:1:pos:R:3:initial_magmoms:R:1 pbc="T T T"
Si       1.12577584       1.62269577       1.31080982       0.00000000
Si       1.60224205      -1.75159854       0.13853273       0.00000000
Si      -1.78048138      -0.38897262       1.58521517       0.00000000
Si      -0.99326713       1.21857345      -1.85751317       0.00000000
Si      -2.58893779       1.82589723       1.29042719       0.00000000
Si      -0.55159732       3.30455682       1.28275780       0.00000000
Si       3.20726317       1.60458129       0.24096404       0.00000000
Si      -3.26412571       1.52840925      -0.97546388       0.00000000
Si      -1.59769129      -2.15098047      -2.72346364       0.00000000
Si      -0.89189958      -1.12060539       3.57807796       0.00000000
