10
Lattice="16.28999089631971 0.0 0.0 0.0 16.28999089631971 0.0 0.0 0.0 34.54679606040008" Properties=species:S:1:pos:R:3:initial_magmoms:R:1 pbc="T T T"
Si      -1.35632332      -1.35769005       1.35813895       0.00000000
Si       1.35900954       1.35773892       1.35800077       0.00000000
Si      -1.35725674       1.36358703      -1.35492610       0.00000000
Si       1.36295172      -1.36174626      -1.36048814       0.00000000
Si      -2.71978559       0.00713502      -2.70489818       0.00000000
Si      -2.71488230       2.71428867       0.00165825       0.00000000
Si      -2.71384388       0.00058644       2.71579425       0.00000000
Si      -2.71385808      -2.71586880       0.00027637       0.00000000
Si       0.00141723      -2.71523349       2.71517241       0.00000000
Si       0.00078192       2.71539505       2.71534514       0.00000000
