10
Lattice="16.28999089631971 0.0 0.0 0.0 16.28999089631971 0.0 0.0 0.0 34.54679606040008" Properties=species:S:1:pos:R:3:initial_magmoms:R:1 pbc="T T T"
Si      -1.35608981      -1.35739683      -1.35724074       0.00000000
Si       1.35943960       1.35826020      -1.35730983       0.00000000
Si      -1.35687622       1.35972630       1.35948628       0.00000000
Si       1.36113376      -1.35635427       1.36214638       0.00000000
Si      -2.71842700      -0.00623907       2.69396066       0.00000000
Si      -2.71293727       0.00032580      -2.71486149       0.00000000
Si      -2.71300243       2.71560816      -0.00006909       0.00000000
Si       0.00135696      -2.71467148      -2.71486149       0.00000000
Si      -2.71549480      -2.71435220      -0.00152006       0.00000000
Si       0.00185054       2.71505430      -2.71503422       0.00000000
