10
Lattice="16.28999089631971 0.0 0.0 0.0 16.28999089631971 0.0 0.0 0.0 34.54679606040008" Properties=species:S:1:pos:R:3:initial_magmoms:R:1 pbc="T T T"
Si      -0.23250717      -2.29789998      -0.52006776       0.00000000
Si      -2.22355405       0.73823203      -0.44043735       0.00000000
Si       1.91498724       0.78889572      -1.20754938       0.00000000
Si       0.72842364       0.66831354       2.19945755       0.00000000
Si      -1.48138654      -3.44007333       1.10888368       0.00000000
Si      -0.49474359       2.71012562       2.79732473       0.00000000
Si       3.13875720       0.85595172       2.20367226       0.00000000
Si      -2.25333706       3.09341303      -0.89673169       0.00000000
Si      -3.68625500       0.39058533       1.43072181       0.00000000
Si      -3.22353755      -0.30015954      -2.32386063       0.00000000
