10
Lattice="10.86 0.0 0.0 0.0 10.86 0.0 0.0 0.0 10.86" Properties=species:S:1:pos:R:3:initial_magmoms:R:1 pbc="T T T"
Si      -1.42314870      -1.07543322       1.08760728       0.00000000
Si       1.29185130      -1.07543322      -1.62739272       0.00000000
Si       1.29185130       1.63956678       1.08760728       0.00000000
Si      -0.06564870      -2.43293322       2.44510728       0.00000000
Si       2.64935130      -2.43293322      -0.26989272       0.00000000
Si       2.64935130       0.28206678       2.44510728       0.00000000
Si      -2.87509812       0.42302958       2.29569540       0.00000000
Si      -2.78064870      -2.43293322      -0.26989272       0.00000000
Si       0.07777932       2.78842446       2.60022066       0.00000000
Si      -0.06564870      -2.43293322      -2.98489272       0.00000000
