10
Lattice="10.86 0.0 0.0 0.0 10.86 0.0 0.0 0.0 10.86" Properties=species:S:1:pos:R:3:initial_magmoms:R:1 pbc="T T T"
Si       1.50304572       1.25497074       1.10357148       0.00000000
Si      -1.21195428       1.25497074      -1.61142852       0.00000000
Si       1.50304572      -1.46002926      -1.61142852       0.00000000
Si      -2.45011374       0.10842624       2.43650616       0.00000000
Si       0.14554572       2.61247074       2.46107148       0.00000000
Si      -2.56945428       2.61247074      -0.25392852       0.00000000
Si       2.86054572      -0.10252926       2.46107148       0.00000000
Si       2.86054572       2.61247074      -0.25392852       0.00000000
Si       0.14554572       2.61247074      -2.96892852       0.00000000
Si       0.30145188      -3.02038320       2.61183000       0.00000000
