10
Lattice="16.290000149 0.0 0.0 0.0 16.290000149 0.0 0.0 0.0 29.1751946751" Properties=species:S:1:pos:R:3:initial_magmoms:R:1 pbc="T T T"
Si       1.32737437       1.38227167      -1.37571254       0.00000000
Si       1.34848621      -1.36264222       1.37622311       0.00000000
Si      -1.36319608       1.34692237       1.39147882       0.00000000
Si      -1.38836413      -1.37963269      -1.34102324       0.00000000
Si       2.52532469      -0.09076788      -2.80512203       0.00000000
Si      -2.64719018      -2.74774836       0.08462849       0.00000000
Si      -2.83993347       0.03727152      -2.55748298       0.00000000
Si       2.72021825       0.04375494       2.68836290       0.00000000
Si      -0.06843429       2.80800507      -2.60127494       0.00000000
Si       2.63596637       2.82996399      -0.00724128       0.00000000
