10
Lattice="16.290000149 0.0 0.0 0.0 16.290000149 0.0 0.0 0.0 29.1751946751" Properties=species:S:1:pos:R:3:initial_magmoms:R:1 pbc="T T T"
Si       1.36875097       1.34886088       1.33774103       0.00000000
Si       1.44259354      -1.33179711      -1.28274578       0.00000000
Si      -1.34969167      -1.38755941       1.33561124       0.00000000
Si      -1.37705887       1.34003170      -1.35892222       0.00000000
Si       0.11818395      -2.66825625      -2.62058601       0.00000000
Si       0.03394836       2.74462068      -2.61647522       0.00000000
Si       0.00338832       2.69619050       2.68761893       0.00000000
Si       2.69415425      -0.03368772       2.69841376       0.00000000
Si      -2.71256195      -0.02463048       2.68073359       0.00000000
Si      -2.79648804      -0.08935065      -2.59466385       0.00000000
