10
Lattice="16.290000149 0.0 0.0 0.0 16.290000149 0.0 0.0 0.0 29.1751946751" Properties=species:S:1:pos:R:3:initial_magmoms:R:1 pbc="T T T"
Si       1.08209584      -1.42047172      -1.49849635       0.00000000
Si      -1.54704502       1.32434443      -1.18375435       0.00000000
Si      -1.05595039      -1.76147030       1.18290827       0.00000000
Si       2.12641517       0.97156819       0.68042389       0.00000000
Si       0.22035483       0.80800030       3.38263042       0.00000000
Si       2.38068578      -2.71122617      -0.07133335       0.00000000
Si      -0.20338065       2.70177797      -2.49935140       0.00000000
Si      -1.40828680      -0.87312772       3.31672366       0.00000000
Si       2.48771108      -0.09700695      -2.74999550       0.00000000
Si       0.54617113      -3.53916543       1.08712610       0.00000000
