10
Lattice="16.290000149 0.0 0.0 0.0 16.290000149 0.0 0.0 0.0 29.1751946751" Properties=species:S:1:pos:R:3:initial_magmoms:R:1 pbc="T T T"
Si       1.34449516       1.35525634      -1.36525323       0.00000000
Si      -1.35695701      -1.36286051      -1.34996543       0.00000000
Si       1.39000942      -1.34805290       1.33330640       0.00000000
Si      -1.38394954       1.35576133       1.33365650       0.00000000
Si       0.02695995      -2.69823327       2.68327183       0.00000000
Si      -0.02868669       2.72237831       2.67285628       0.00000000
Si      -2.70294760      -0.00165181      -2.70506570       0.00000000
Si       2.70402599      -0.00214702      -2.70512405       0.00000000
Si       2.71749782       2.70240677      -0.02147294       0.00000000
Si       2.70777269      -2.71655952      -0.05257370       0.00000000
