10
Lattice="16.290000149 0.0 0.0 0.0 16.290000149 0.0 0.0 0.0 29.1751946751" Properties=species:S:1:pos:R:3:initial_magmoms:R:1 pbc="T T T"
Si      -2.30829302      -0.08806374       0.36308530       0.00000000
H       -0.89831206       1.57478689      -1.48711802       0.00000000
Si       0.98088607      -0.40184824      -2.15021185       0.00000000
Si       1.02869722       2.14863473       0.39331080       0.00000000
Si       0.06125040      -2.06658200       1.29237360       0.00000000
H       -2.92789947       1.21173166      -0.08241992       0.00000000
Si       2.85035907       1.26182341       1.53937080       0.00000000
Si       2.89952229      -1.46179131      -1.37263456       0.00000000
Si       3.53756901      -0.78845881       0.77430967       0.00000000
Si      -3.16359948      -1.73371214      -1.04397599       0.00000000
