10
Lattice="16.290000149 0.0 0.0 0.0 16.290000149 0.0 0.0 0.0 29.1751946751" Properties=species:S:1:pos:R:3:initial_magmoms:R:1 pbc="T T T"
Si      -1.25882605      -1.36811566       1.42565172       0.00000000
Si      -1.45156933       1.41690421      -1.21645974       0.00000000
Si       0.95674429      -1.26956116      -1.75491713       0.00000000
Si       1.38836413       1.37963269       1.34102324       0.00000000
Si       2.34950672       0.16570188      -2.93210706       0.00000000
Si      -2.68594409       0.00697212       2.71956869       0.00000000
Si      -2.06861825      -3.22743999       0.24508943       0.00000000
Si       2.73685035       0.01699047       2.71724634       0.00000000
Si       0.02516805       2.72655506       2.73250205       0.00000000
Si      -0.18591777       2.89978293      -2.54235564       0.00000000
