10
Lattice="16.290000149 0.0 0.0 0.0 16.290000149 0.0 0.0 0.0 29.1751946751" Properties=species:S:1:pos:R:3:initial_magmoms:R:1 pbc="T T T"
Si      -1.27221822       1.35956341       1.42404125       0.00000000
Si       1.34787371      -1.33506325       1.37695249       0.00000000
Si       1.34241656       1.36712197      -1.36265664       0.00000000
Si      -1.37899087      -1.35896068      -1.33704082       0.00000000
Si       2.65990290       0.13232367       2.65972745       0.00000000
Si      -2.66313158       2.71549415       0.07390077       0.00000000
Si       0.01727229      -2.70015875      -2.68166719       0.00000000
Si      -0.07364057      -2.62560593       2.75927321       0.00000000
Si      -2.68429229       0.02010186      -2.71011301       0.00000000
Si       2.72009445       0.01936881      -2.71839876       0.00000000
