10
Lattice="16.290000149 0.0 0.0 0.0 16.290000149 0.0 0.0 0.0 29.1751946751" Properties=species:S:1:pos:R:3:initial_magmoms:R:1 pbc="T T T"
Si       1.41517259       1.43514901       1.17164664       0.00000000
Si       1.43944632      -1.23958756      -1.36997962       0.00000000
Si      -1.28519956       1.42224733      -1.35539202       0.00000000
Si      -1.63597214      -1.05875227       1.43296886       0.00000000
H        0.25409468      -2.69000030       1.69315325       0.00000000
H       -1.09540477       1.41043708       2.81368495       0.00000000
Si      -0.06605595       2.51849918       2.59522109       0.00000000
Si      -2.63355545       2.47407635       0.26526087       0.00000000
Si      -3.31811013       0.61545250       1.68568440       0.00000000
Si       0.08197926      -2.65000835      -2.68417626       0.00000000
