10
Lattice="16.290000149 0.0 0.0 0.0 16.290000149 0.0 0.0 0.0 29.1751946751" Properties=species:S:1:pos:R:3:initial_magmoms:R:1 pbc="T T T"
Si      -1.41327154      -1.28392568       1.38202897       0.00000000
Si       1.32317155      -1.39242686      -1.36764560       0.00000000
Si       1.39929472       1.37182978       1.31387572       0.00000000
Si      -1.34789977       1.33374376      -1.40682789       0.00000000
Si       0.00780291       2.72544734       2.62740133       0.00000000
Si      -2.64437201      -2.71751411      -0.04361692       0.00000000
Si       2.58266549      -2.78475924       0.06205564       0.00000000
Si       2.69027723      -0.03336192      -2.74392706       0.00000000
Si      -2.71821458       2.72090243      -0.09592804       0.00000000
Si       2.73942417       2.72086985      -0.05855462       0.00000000
