10
Lattice="16.290000149 0.0 0.0 0.0 16.290000149 0.0 0.0 0.0 29.1751946751" Properties=species:S:1:pos:R:3:initial_magmoms:R:1 pbc="T T T"
Si      -1.48897117       1.79870924      -0.11944325       0.00000000
Si       1.13293693      -1.10872999      -1.75307910       0.00000000
Si      -1.65693737      -1.52438563       0.73533161       0.00000000
Si       1.85992706       0.83577475       1.25718831       0.00000000
H       -0.75132739       0.55447903       2.50349428       0.00000000
H       -1.40273191       0.97643890       2.46200715       0.00000000
Si       2.47171430      -2.52574823      -0.38050289       0.00000000
H        1.35878149       3.20207646      -0.96887904       0.00000000
H        0.77623480       3.31687209       1.36466973       0.00000000
Si       2.54448173       2.69439860      -0.16323521       0.00000000
