10
Lattice="16.290000149 0.0 0.0 0.0 16.290000149 0.0 0.0 0.0 29.1751946751" Properties=species:S:1:pos:R:3:initial_magmoms:R:1 pbc="T T T"
Si       0.91621477       0.06965604      -1.21079975       0.00000000
H       -1.26245872      -1.76204045      -0.41183705       0.00000000
H        1.90053803       0.41849010       1.24621844       0.00000000
Si      -1.80038711      -2.02043243       0.97281769       0.00000000
Si       0.02402775       1.48923181      -2.80192735       0.00000000
Si       1.19048950       2.93824687       0.25732522       0.00000000
Si       1.24680403      -2.05306130      -2.14032146       0.00000000
Si       2.80751637       1.40631571      -0.82329482       0.00000000
Si      -2.64212399      -0.14577921       2.09419547       0.00000000
H       -2.83219572      -0.93908593      -1.58424225       0.00000000
