10
Lattice="16.290000149 0.0 0.0 0.0 16.290000149 0.0 0.0 0.0 29.1751946751" Properties=species:S:1:pos:R:3:initial_magmoms:R:1 pbc="T T T"
Si      -1.36875097      -1.34886088      -1.33774103       0.00000000
Si      -1.36536265       1.34732962       1.34987791       0.00000000
Si       1.32540328      -1.38254860       1.36067273       0.00000000
Si       1.38499161       1.33204960      -1.36744137       0.00000000
Si       0.07384257      -2.68065799      -2.62048681       0.00000000
Si       2.69498993      -0.01251072       2.68589760       0.00000000
Si      -0.00636939       2.71296920       2.68017926       0.00000000
Si      -2.69462666       2.71427240      -0.02564500       0.00000000
Si       0.05512536       2.74084139      -2.67866215       0.00000000
Si      -2.72181467      -0.02930571       2.70599931       0.00000000
