10
Lattice="16.290000149 0.0 0.0 0.0 16.290000149 0.0 0.0 0.0 29.1751946751" Properties=species:S:1:pos:R:3:initial_magmoms:R:1 pbc="T T T"
Si       0.60865957       0.51373773      -2.18352992       0.00000000
Si      -2.29793258      -0.05530455       0.45746705       0.00000000
Si       0.76688434       2.04626837       0.87890274       0.00000000
Si       1.21880152      -1.87486173       0.94903991       0.00000000
Si       1.69140701       1.00167211       2.71364321       0.00000000
Si       3.02466207      -0.54354843       1.55617571       0.00000000
Si       1.29586951      -1.53654449      -2.94859105       0.00000000
Si      -0.24643512      -0.02736720       3.61594445       0.00000000
Si      -2.44955990       0.35649036       2.81403505       0.00000000
Si      -3.16767198       2.01766313      -0.33802381       0.00000000
