10
Lattice="16.290000149 0.0 0.0 0.0 16.290000149 0.0 0.0 0.0 29.1751946751" Properties=species:S:1:pos:R:3:initial_magmoms:R:1 pbc="T T T"
Si      -1.30249954      -1.35402481       1.43455891       0.00000000
Si       1.36039257      -1.45846000      -1.28655315       0.00000000
Si       1.39054699       1.28679598       1.43508406       0.00000000
Si      -1.30074022       1.52938666      -1.31941025       0.00000000
Si       2.70617627       0.00368154      -2.51959082       0.00000000
Si      -2.53200359       2.73018464       0.27775077       0.00000000
Si      -2.64940562      -2.68670972       0.04571461       0.00000000
Si       2.80277598       2.67739184       0.17887312       0.00000000
Si      -2.64580553      -0.05110173       2.85900861       0.00000000
Si       0.10947662       2.63199161       2.89191823       0.00000000
