10
Lattice="16.290000149 0.0 0.0 0.0 16.290000149 0.0 0.0 0.0 29.1751946751" Properties=species:S:1:pos:R:3:initial_magmoms:R:1 pbc="T T T"
Si      -1.33930028      -1.35019666       1.36688705       0.00000000
Si       1.35229807      -1.36285399      -1.35909727       0.00000000
Si      -1.40617073       1.33823003      -1.33278124       0.00000000
Si       1.34281729       1.34335486       1.39296967       0.00000000
Si       2.65049705       2.69087996      -0.03086736       0.00000000
Si      -2.71669898       0.05281479       2.65686828       0.00000000
Si      -0.05861142       2.69114060      -2.70871260       0.00000000
Si       2.71534754      -0.01267362      -2.70906270       0.00000000
Si      -2.71628205      -2.71378370       0.01161173       0.00000000
Si      -0.07556931       2.70332552       2.72583844       0.00000000
