10
Lattice="16.290000149 0.0 0.0 0.0 16.290000149 0.0 0.0 0.0 29.1751946751" Properties=species:S:1:pos:R:3:initial_magmoms:R:1 pbc="T T T"
Si      -0.22543731       2.13640094       0.91032442       0.00000000
Si      -1.81367975      -0.75478087      -1.38380866       0.00000000
Si       0.34453350      -1.95087413       1.37336394       0.00000000
Si       2.12169107       0.58083625      -1.00438525       0.00000000
H        2.20793033      -0.24143409       1.57706515       0.00000000
H       -1.34873056       2.18874071       1.92322883       0.00000000
H        2.85933486      -0.66339397       1.61855227       0.00000000
H       -1.05010228      -1.11291652       3.00247763       0.00000000
Si       1.95372488      -2.74225863      -0.14961040       0.00000000
H        1.06328089      -1.87203053       2.69928901       0.00000000
