10
Lattice="16.290000149 0.0 0.0 0.0 16.290000149 0.0 0.0 0.0 29.1751946751" Properties=species:S:1:pos:R:3:initial_magmoms:R:1 pbc="T T T"
Si       1.13610859      -0.96853825      -0.28898030       0.00000000
Si      -1.89006682       1.63124803      -0.26018439       0.00000000
H       -1.14960486      -1.81135028       1.92880130       0.00000000
Si      -1.53075828       1.39949020       2.10081824       0.00000000
Si      -0.18191548      -2.66483225      -1.43238536       0.00000000
Si       2.42868915      -0.81414163       1.73749954       0.00000000
Si       2.61406936       0.23688918      -1.67731112       0.00000000
Si      -0.25409468       2.69000030      -1.69315325       0.00000000
Si      -1.08221313      -0.73472788       2.98885282       0.00000000
Si      -2.96041757      -0.05607018      -1.64516005       0.00000000
