10
Lattice="16.290000149 0.0 0.0 0.0 16.290000149 0.0 0.0 0.0 29.1751946751" Properties=species:S:1:pos:R:3:initial_magmoms:R:1 pbc="T T T"
Si      -2.06079905       0.73602619      -0.84152932       0.00000000
Si      -0.78732829      -1.49516463       1.71121269       0.00000000
Si       0.90751591       2.08428597       0.80704424       0.00000000
Si       1.02499939      -0.67507715      -2.08094994       0.00000000
H       -1.41011128       2.28883950       1.73872490       0.00000000
Si      -1.34454403       1.30344110      -3.01023824       0.00000000
Si      -2.68596038       2.24642034       0.91014937       0.00000000
Si      -3.32279676      -1.25276943      -0.92637078       0.00000000
H        0.40156479      -3.61260401      -0.54295037       0.00000000
Si      -2.31568868      -2.81872714       0.53128030       0.00000000
