10
Lattice="16.290000149 0.0 0.0 0.0 16.290000149 0.0 0.0 0.0 29.1751946751" Properties=species:S:1:pos:R:3:initial_magmoms:R:1 pbc="T T T"
Si      -1.15883803      -0.12290805       2.05615102       0.00000000
Si      -1.54054531       1.00048294      -1.50155974       0.00000000
Si       0.95628817      -1.78153958      -1.26051429       0.00000000
Si       1.55851318       1.81667711       0.38552102       0.00000000
H        2.32648895       0.71775370      -1.59031069       0.00000000
Si       2.19054890      -0.46429758      -2.78693130       0.00000000
H        0.69406804      -2.97242004       1.93379025       0.00000000
H       -2.10401642      -2.82281268      -0.90574392       0.00000000
Si      -2.57474855       2.62435486      -0.18587517       0.00000000
Si      -0.26160111       2.44574755      -2.78967376       0.00000000
