10
Lattice="16.290000149 0.0 0.0 0.0 16.290000149 0.0 0.0 0.0 29.1751946751" Properties=species:S:1:pos:R:3:initial_magmoms:R:1 pbc="T T T"
Si       1.27221822      -1.35956341      -1.42404125       0.00000000
Si       1.35746705       1.41042079       1.31419664       0.00000000
Si      -1.39091335       1.35593074      -1.35014048       0.00000000
Si      -1.29760423      -1.35689185       1.44560172       0.00000000
Si       2.62009193      -2.69462666      -0.04708876       0.00000000
Si      -0.08197926       2.65000835       2.68417626       0.00000000
Si      -2.72270232      -2.62956440       0.04323764       0.00000000
Si       2.61463478       0.00755856      -2.78669789       0.00000000
Si      -0.03504777       2.70619256      -2.73987171       0.00000000
Si      -2.77344567       2.70756092       0.00554329       0.00000000
