10
Lattice="16.290000149 0.0 0.0 0.0 16.290000149 0.0 0.0 0.0 29.1751946751" Properties=species:S:1:pos:R:3:initial_magmoms:R:1 pbc="T T T"
Si       0.89218702      -1.41957577       1.59112759       0.00000000
Si      -2.23278887       0.50920911      -0.32031446       0.00000000
Si       0.56257516      -1.03294891      -2.00906226       0.00000000
Si       1.24352974       1.78733230      -0.83837839       0.00000000
H       -0.02402775      -1.48923181       2.80192735       0.00000000
Si       0.60548302       1.11399981      -2.98532262       0.00000000
Si       2.78348862      -0.08291610       1.97863253       0.00000000
Si       3.30320478       1.17467517       0.04816825       0.00000000
Si      -1.06606648      -2.71407692      -2.07496902       0.00000000
Si       1.16646175       1.44901506       3.05925256       0.00000000
