10
Lattice="16.290000149 0.0 0.0 0.0 16.290000149 0.0 0.0 0.0 29.1751946751" Properties=species:S:1:pos:R:3:initial_magmoms:R:1 pbc="T T T"
Si      -1.34782852      -1.35369901       1.35746346       0.00000000
Si      -1.36858198       1.35679411      -1.34060020       0.00000000
Si       1.33022796      -1.34934958      -1.39142338       0.00000000
Si       1.31425235       1.36630747       1.39445760       0.00000000
Si       0.02959655       2.69162930      -2.67539453       0.00000000
Si       2.68135641      -2.70839171      -0.03165509       0.00000000
Si      -2.69211191       0.01161477       2.70792487       0.00000000
Si       2.68972947       2.71443530       0.04361692       0.00000000
Si      -2.71872977      -2.70174539       0.00201309       0.00000000
Si       2.70439047       0.01744659       2.72400040       0.00000000
