10
Lattice="16.290000149 0.0 0.0 0.0 16.290000149 0.0 0.0 0.0 29.1751946751" Properties=species:S:1:pos:R:3:initial_magmoms:R:1 pbc="T T T"
H        1.27584910       0.04241916       0.82857553       0.00000000
Si      -1.37226473      -1.39498602       1.31437170       0.00000000
Si       0.62516134      -1.51039415      -1.75167869       0.00000000
Si      -0.80287872       2.25779402       0.20574347       0.00000000
Si       0.51227163       1.98610940      -1.70499838       0.00000000
Si       2.72373689       1.91083331      -0.89859600       0.00000000
Si       0.47052036      -2.56497455       2.25646791       0.00000000
H       -3.06602238       0.98890075      -1.51369663       0.00000000
Si       3.59347629      -0.16213437      -0.10310514       0.00000000
Si       2.68596038      -2.24642034      -0.91014937       0.00000000
