10
Lattice="16.290000149 0.0 0.0 0.0 16.290000149 0.0 0.0 0.0 29.1751946751" Properties=species:S:1:pos:R:3:initial_magmoms:R:1 pbc="T T T"
Si      -1.89130160      -1.33665967      -0.38750494       0.00000000
Si       0.51971616       1.25759127      -1.93046428       0.00000000
Si       1.93562669      -1.48967164       0.31156190       0.00000000
H       -0.90697834      -0.98782561       2.06951326       0.00000000
Si      -1.61702686       1.53193116       1.08062004       0.00000000
H       -2.80751637      -1.40631571       0.82329482       0.00000000
Si       0.18883368       2.86324446       1.68775584       0.00000000
Si      -2.78348862       0.08291610      -1.97863253       0.00000000
Si      -0.01765836      -1.83457982       2.95676010       0.00000000
Si       1.55391940      -0.36628065      -3.24614886       0.00000000
