10
Lattice="16.290000149 0.0 0.0 0.0 16.290000149 0.0 0.0 0.0 29.1751946751" Properties=species:S:1:pos:R:3:initial_magmoms:R:1 pbc="T T T"
Si      -1.68213800       1.67420477       0.25271554       0.00000000
Si       0.35930853      -0.23175783       2.36100263       0.00000000
Si       1.63597214       1.05875227      -1.43296886       0.00000000
Si      -1.07035075      -1.68731822      -1.38497567       0.00000000
H        1.89006682      -1.63124803       0.26018439       0.00000000
H        0.54056736       2.46918935       1.38071609       0.00000000
H       -1.08325243       0.05362668       2.80248167       0.00000000
Si      -2.40912812      -0.27029997      -2.75755188       0.00000000
Si       0.35077257       2.48099960      -2.78836088       0.00000000
Si      -3.54206505       0.83843002      -1.00447278       0.00000000
