10
Lattice="16.290000149 0.0 0.0 0.0 16.290000149 0.0 0.0 0.0 29.1751946751" Properties=species:S:1:pos:R:3:initial_magmoms:R:1 pbc="T T T"
Si      -0.56257516       1.03294891       2.00906226       0.00000000
Si      -1.62864163      -1.68112802      -0.06590676       0.00000000
Si       2.19564767      -0.72785350      -0.46193086       0.00000000
Si       0.04290786       2.14694871      -0.97626036       0.00000000
Si       0.68095459       2.82028121       1.17068386       0.00000000
Si       1.90606034       0.16356789      -2.70220653       0.00000000
Si       1.90923689      -2.76065004       0.72856296       0.00000000
Si      -3.46458981      -0.23439681       0.10835667       0.00000000
Si      -0.22035483      -0.80800030      -3.38263042       0.00000000
Si      -2.79536403       1.54215802       1.68874779       0.00000000
