10
Lattice="16.290000149 0.0 0.0 0.0 16.290000149 0.0 0.0 0.0 29.1751946751" Properties=species:S:1:pos:R:3:initial_magmoms:R:1 pbc="T T T"
Si       1.44256096      -0.28538451      -0.44147905       0.00000000
Si      -1.98250931       0.09242946       1.05663803       0.00000000
Si      -1.22376997       1.96522562      -0.22327776       0.00000000
Si       0.65591686       2.66792735       1.05412896       0.00000000
Si       1.08325243      -0.05362668      -2.80248167       0.00000000
Si      -0.59888557       1.62057808      -2.54976614       0.00000000
Si      -0.95993713      -1.24299217       2.67507360       0.00000000
Si       1.89110612      -2.41960259       0.44655553       0.00000000
Si       2.66667302       1.30456837       0.97144646       0.00000000
H        1.62381979       2.41556267      -1.42176559       0.00000000
