10
Lattice="16.290000149 0.0 0.0 0.0 16.290000149 0.0 0.0 0.0 29.1751946751" Properties=species:S:1:pos:R:3:initial_magmoms:R:1 pbc="T T T"
Si      -1.61500690       0.17493831       1.68244595       0.00000000
Si       0.84004273       1.91634747      -1.04701021       0.00000000
Si       1.76204045      -1.15611760       1.04280898       0.00000000
Si      -1.56235762      -0.78231097      -1.58885193       0.00000000
H       -0.22025709       3.02245803      -1.01007441       0.00000000
Si      -2.05543964       2.46377781       1.38946865       0.00000000
Si       0.60846409      -2.79552693       2.22352911       0.00000000
Si      -2.48415986      -2.61526178      -0.41431694       0.00000000
Si       1.15499359       1.15727419      -3.25948192       0.00000000
Si      -0.40351959      -0.65940292      -3.64500295       0.00000000
