10
Lattice="16.290000149 0.0 0.0 0.0 16.290000149 0.0 0.0 0.0 29.1751946751" Properties=species:S:1:pos:R:3:initial_magmoms:R:1 pbc="T T T"
Si       1.34589610      -1.34506531       1.36525323       0.00000000
Si      -1.35475786       1.32913369       1.40058440       0.00000000
Si      -1.42104187      -1.46000755      -1.22497015       0.00000000
Si       1.45969804       1.43622106      -1.21600461       0.00000000
Si      -0.99546562       0.92519056      -3.42367700       0.00000000
Si       0.04256577       2.77907240      -2.47029583       0.00000000
Si      -2.82665712      -0.09552456      -2.47805351       0.00000000
Si       2.68920209      -2.64798839      -0.05919647       0.00000000
Si      -0.08340480      -2.61276941      -2.78347987       0.00000000
Si      -0.00979029      -2.71573850       2.71133837       0.00000000
