10
Lattice="16.290000149 0.0 0.0 0.0 16.290000149 0.0 0.0 0.0 29.1751946751" Properties=species:S:1:pos:R:3:initial_magmoms:R:1 pbc="T T T"
Si       1.34786719       1.36137160       1.35139502       0.00000000
Si      -1.34309748       1.35755974      -1.36388200       0.00000000
Si       1.35894439      -1.35586558      -1.35399161       0.00000000
Si      -1.36825739      -1.36397800       1.34448050       0.00000000
Si      -0.03357369      -2.69928560      -2.68341771       0.00000000
Si       2.69127092      -0.02191005       2.69473768       0.00000000
Si      -2.67825570      -0.01941768      -2.70885848       0.00000000
Si      -0.04010598       2.71362080       2.68461389       0.00000000
Si       2.69622308       2.70878267      -0.02724963       0.00000000
Si       2.68925096      -2.72585459       0.01814697       0.00000000
