10
Lattice="16.290000149 0.0 0.0 0.0 16.290000149 0.0 0.0 0.0 29.1751946751" Properties=species:S:1:pos:R:3:initial_magmoms:R:1 pbc="T T T"
Si       0.88931998      -0.84675421       0.88724685       0.00000000
H       -1.90053803      -0.41849010      -1.24621844       0.00000000
Si       0.90697834       0.98782561      -2.06951326       0.00000000
Si      -0.98432326      -0.34883406      -2.45701819       0.00000000
Si      -0.71004853       2.51975677      -0.98889322       0.00000000
Si      -1.44542800       2.17737029       1.27340972       0.00000000
Si       1.92080279      -2.33479685      -0.58341637       0.00000000
Si      -0.50386599      -2.07930449       2.31805674       0.00000000
Si       2.78995575       0.45540324       1.51334652       0.00000000
Si       2.84260503      -0.50184603      -1.75795136       0.00000000
