10
Lattice="16.290000149 0.0 0.0 0.0 16.290000149 0.0 0.0 0.0 29.1751946751" Properties=species:S:1:pos:R:3:initial_magmoms:R:1 pbc="T T T"
Si      -2.05967504       0.61265713      -0.88654664       0.00000000
Si       1.03420324      -1.62387192      -1.31568458       0.00000000
Si      -0.51971616      -1.25759127       1.93046428       0.00000000
Si       1.52318017       1.84521393       0.07818952       0.00000000
Si       2.31314744      -0.17860731      -2.60379860       0.00000000
Si      -3.30320478      -1.17467517      -0.04816825       0.00000000
Si       2.57474855      -2.62435486       0.18587517       0.00000000
Si       0.78343498       3.17304442      -1.70873280       0.00000000
Si      -2.13674303       0.27433989       3.01108432       0.00000000
Si       0.88984126       2.92439386       2.12179521       0.00000000
