10
Lattice="16.290000149 0.0 0.0 0.0 16.290000149 0.0 0.0 0.0 29.1751946751" Properties=species:S:1:pos:R:3:initial_magmoms:R:1 pbc="T T T"
Si       0.96909211      -1.45292140      -1.51498033       0.00000000
Si      -1.69121153       0.92823679      -1.30935356       0.00000000
Si      -1.26565156      -1.48287871       1.32589590       0.00000000
Si       1.50584761       1.28785483       1.28210393       0.00000000
H       -1.15328314       1.18662877      -2.69400830       0.00000000
Si      -0.92958886      -2.95303494      -1.83298996       0.00000000
Si      -2.64394847      -2.51160851      -0.30587274       0.00000000
Si      -2.57258198      -0.05823675       2.62863924       0.00000000
H        0.10917558       2.94866922      -2.28217125       0.00000000
Si       0.16477335       2.64086966       2.62984330       0.00000000
