10
Lattice="16.290000149 0.0 0.0 0.0 16.290000149 0.0 0.0 0.0 29.1751946751" Properties=species:S:1:pos:R:3:initial_magmoms:R:1 pbc="T T T"
Si       1.45854276       1.17955891      -1.41699253       0.00000000
Si      -1.39499416      -1.32211270      -1.36494398       0.00000000
Si      -1.33038802       1.44015004       1.31399242       0.00000000
Si       1.38797317      -1.36094806       1.35604554       0.00000000
Si       0.14209767      -2.59428026      -2.56308170       0.00000000
Si       0.05680323       2.35033751      -2.87910741       0.00000000
H       -0.84470167       3.09099495      -1.90033798       0.00000000
Si      -2.67183695       0.02184489       2.67415750       0.00000000
Si       2.67941018       2.66839976      -0.01827534       0.00000000
Si      -2.61210152      -2.75634948       0.07753600       0.00000000
