10
Lattice="16.290000149 0.0 0.0 0.0 16.290000149 0.0 0.0 0.0 29.1751946751" Properties=species:S:1:pos:R:3:initial_magmoms:R:1 pbc="T T T"
Si      -1.57181071       1.06974802      -1.36078943       0.00000000
Si       1.38619756      -1.47795913      -1.21540943       0.00000000
Si      -0.84660760      -1.48623445       1.63348997       0.00000000
Si       0.42686316       1.81004708       1.48948121       0.00000000
H        0.34979517      -1.11979090       2.52339176       0.00000000
Si      -1.88395155       1.99627436       2.08194189       0.00000000
Si      -0.25358643       2.54769086      -2.62970617       0.00000000
Si      -3.05303925       2.15309819       0.06278502       0.00000000
Si       2.70063767      -0.12263112      -2.60280664       0.00000000
Si      -0.11881926      -2.81851212      -2.51659394       0.00000000
