10
Lattice="16.290000149 0.0 0.0 0.0 16.290000149 0.0 0.0 0.0 29.1751946751" Properties=species:S:1:pos:R:3:initial_magmoms:R:1 pbc="T T T"
Si       1.34135282       1.36115983       1.35632563       0.00000000
Si      -1.33718095       1.37176462      -1.35512944       0.00000000
Si       1.36417837      -1.35371530      -1.34941110       0.00000000
Si      -1.35588187      -1.34773687       1.37065065       0.00000000
Si      -2.69617421       0.00612504      -2.68543079       0.00000000
Si       2.67082697      -0.00071676       2.71810701       0.00000000
Si      -0.00540828      -2.72375318      -2.67463597       0.00000000
Si      -2.68488524       2.71775846       0.01193265       0.00000000
Si       2.69324201      -2.71508690       0.02316510       0.00000000
Si       2.69232977       2.72388350      -0.00927771       0.00000000
