10
Lattice="16.290000149 0.0 0.0 0.0 16.290000149 0.0 0.0 0.0 29.1751946751" Properties=species:S:1:pos:R:3:initial_magmoms:R:1 pbc="T T T"
Si      -1.34601013      -1.33030169       1.34666280       0.00000000
Si       1.31566186      -1.32309988      -1.40028973       0.00000000
Si      -1.20288619       1.39740508      -1.44128379       0.00000000
Si       1.42868188       1.40385592       1.24236148       0.00000000
Si       2.30492099       0.46395549      -2.55248527       0.00000000
Si       0.67176703       2.19952469      -2.63634615       0.00000000
Si      -2.64740195      -2.65724111      -0.07905602       0.00000000
Si      -2.70194087       0.06485049       2.63614806       0.00000000
Si       2.69886206      -2.64787334      -0.03518820       0.00000000
Si       0.05087367       2.75253762       2.59323134       0.00000000
