10
Lattice="16.290000149 0.0 0.0 0.0 16.290000149 0.0 0.0 0.0 29.1751946751" Properties=species:S:1:pos:R:3:initial_magmoms:R:1 pbc="T T T"
Si      -1.36575361       1.35674524      -1.33012630       0.00000000
Si       1.35014779       1.36159966       1.34696039       0.00000000
Si      -1.37699371      -1.32901966       1.35635480       0.00000000
Si       1.37489230      -1.36438525      -1.33330640       0.00000000
Si       2.66895362      -0.07972326       2.62395866       0.00000000
Si       0.00130320       2.70049106      -2.67431504       0.00000000
Si       0.01042560      -2.72012051      -2.68079194       0.00000000
Si      -2.70637175      -0.00570150      -2.69537954       0.00000000
Si      -2.68333769       2.72013680       0.06027595       0.00000000
Si      -0.06568128      -2.75739204       2.65109159       0.00000000
