10
Lattice="16.290000149 0.0 0.0 0.0 16.290000149 0.0 0.0 0.0 29.1751946751" Properties=species:S:1:pos:R:3:initial_magmoms:R:1 pbc="T T T"
Si       1.38162170      -1.26465787       1.37234281       0.00000000
Si      -1.31034969      -1.41195205      -1.31022882       0.00000000
Si       1.44443594       1.37544616      -1.23393568       0.00000000
Si      -1.45901223       1.27731520       1.38159134       0.00000000
Si       2.06062149       0.58751515       2.67349814       0.00000000
Si       0.44594038       2.30128832       2.60079355       0.00000000
Si      -2.63545976      -0.06395454      -2.67198103       0.00000000
Si       0.08656506       2.71409321      -2.62060351       0.00000000
H       -1.32307218       2.45936648       2.57821195       0.00000000
Si       0.07852920      -2.74146042      -2.63603719       0.00000000
