10
Lattice="16.290000149 0.0 0.0 0.0 16.290000149 0.0 0.0 0.0 29.1751946751" Properties=species:S:1:pos:R:3:initial_magmoms:R:1 pbc="T T T"
Si       1.47183473      -1.29118190       1.26684530       0.00000000
Si      -1.39896892      -1.42341044      -1.25342471       0.00000000
Si      -1.22982985       1.42439110       1.42614187       0.00000000
Si       1.38609982       1.33543141      -1.37817785       0.00000000
Si       0.11846088      -2.61976434       2.58979451       0.00000000
Si      -2.58233969       2.73317858      -0.00160464       0.00000000
Si      -2.65846286      -0.03107806      -2.68312595       0.00000000
Si       0.03288951      -2.70662262      -2.66290754       0.00000000
Si       2.69145011       0.06878615       2.71813619       0.00000000
Si       2.76509069       2.69439209      -0.04113702       0.00000000
