10
Lattice="16.290000149 0.0 0.0 0.0 16.290000149 0.0 0.0 0.0 29.1751946751" Properties=species:S:1:pos:R:3:initial_magmoms:R:1 pbc="T T T"
Si       2.20312478      -0.38385756       0.80190940       0.00000000
Si       0.04795776       2.29355057       0.66423166       0.00000000
Si       0.15162732      -0.41179491      -2.35656800       0.00000000
Si      -1.52409241      -1.37462678       1.27912806       0.00000000
H       -2.16599987      -0.20724138      -1.42488733       0.00000000
H       -0.86929957       2.45902439      -1.87686945       0.00000000
Si       0.48599586       2.04450905       2.94729596       0.00000000
Si      -0.71811208       1.66117277      -3.15205886       0.00000000
Si       2.11914983       0.30893985       3.03115685       0.00000000
Si       2.44955990      -0.35649036      -2.81403505       0.00000000
