10
Lattice="16.290000149 0.0 0.0 0.0 16.290000149 0.0 0.0 0.0 29.1751946751" Properties=species:S:1:pos:R:3:initial_magmoms:R:1 pbc="T T T"
Si      -1.23028597       1.85070692       0.66551537       0.00000000
Si      -1.53381754      -0.72306424      -1.61017899       0.00000000
Si       1.62075727       0.67409650      -1.56300270       0.00000000
Si       0.07249050      -1.46170171       1.93198139       0.00000000
H        0.33435225      -2.58995201      -0.91117050       0.00000000
H        0.06662610       2.40093425       1.58637204       0.00000000
H        1.55336554      -0.40252590      -2.62305423       0.00000000
Si      -2.75454129      -2.04180491      -0.11375408       0.00000000
H       -0.27034884       3.09369909      -2.00955823       0.00000000
Si       2.31705704      -1.97335433       2.20331070       0.00000000
