10
Lattice="16.290000149 0.0 0.0 0.0 16.290000149 0.0 0.0 0.0 29.1751946751" Properties=species:S:1:pos:R:3:initial_magmoms:R:1 pbc="T T T"
Si      -1.37842723      -1.36405945      -1.30480223       0.00000000
Si      -1.38552967       1.31398399       1.35851376       0.00000000
Si       1.32926401      -1.36694278       1.37552290       0.00000000
Si       1.32470281       1.38689803      -1.38290423       0.00000000
Si      -2.69545745       0.02749752      -2.64619016       0.00000000
Si      -0.01497051       2.67537188       2.68566420       0.00000000
Si       2.68825727      -0.00130320       2.70582425       0.00000000
Si      -0.05118318      -2.72310158      -2.67101825       0.00000000
Si       2.74975203       0.02656899      -2.65301715       0.00000000
Si       2.69462666      -2.71427240       0.02564500       0.00000000
