10
Lattice="16.290000149 0.0 0.0 0.0 16.290000149 0.0 0.0 0.0 29.1751946751" Properties=species:S:1:pos:R:3:initial_magmoms:R:1 pbc="T T T"
Si       1.72512731       0.94037284       1.27516549       0.00000000
Si      -0.86576464      -1.72854983       1.38136903       0.00000000
Si       0.73057393      -0.63187282      -2.17992737       0.00000000
Si      -1.70492771       1.66873133       0.12655849       0.00000000
H       -2.91718065      -0.95029345      -0.67329114       0.00000000
Si       0.46713204       2.34147575       2.63977103       0.00000000
Si      -2.36330435      -0.49249557       2.66158241       0.00000000
Si      -0.84274687      -2.31880333      -2.62353620       0.00000000
Si       2.97514047      -1.14352543      -1.90859806       0.00000000
Si      -2.35818929       2.09262971      -2.00484702       0.00000000
