10
Lattice="16.290000149 0.0 0.0 0.0 16.290000149 0.0 0.0 0.0 29.1751946751" Properties=species:S:1:pos:R:3:initial_magmoms:R:1 pbc="T T T"
Si      -1.52836039      -1.32356251      -1.17993240       0.00000000
Si      -1.42811173       1.17661042       1.45540459       0.00000000
Si       1.37896480      -1.32413266       1.42427465       0.00000000
Si       0.78732829       1.49516463      -1.71121269       0.00000000
H        1.18889308      -2.11743938      -2.25416307       0.00000000
Si      -1.27347076       2.23119082      -2.55274201       0.00000000
Si      -2.53546848       0.24239520      -2.63758347       0.00000000
Si      -0.18021627      -2.67685427      -2.51481426       0.00000000
Si       0.01912446       2.61661874       2.73152760       0.00000000
H       -0.62278300       3.78400413       0.02751221       0.00000000
