10
Lattice="16.290000149 0.0 0.0 0.0 16.290000149 0.0 0.0 0.0 29.1751946751" Properties=species:S:1:pos:R:3:initial_magmoms:R:1 pbc="T T T"
Si      -1.26144874       1.37096641       1.38588010       0.00000000
Si       1.32511006      -1.34799751       1.36175221       0.00000000
Si       1.34504304       1.41446071      -1.30389780       0.00000000
Si      -1.39129633      -1.35669637      -1.32735466       0.00000000
H       -1.87123232       0.56544220       2.49701739       0.00000000
Si       2.63545976       0.06395454       2.67198103       0.00000000
Si      -2.84271906       2.46360188       0.08492899       0.00000000
Si      -0.09431910       2.76561849      -2.58839410       0.00000000
Si       2.68528598       0.05238864      -2.67431504       0.00000000
Si      -0.00918756      -2.69866658      -2.66422043       0.00000000
