10
Lattice="16.290000149 0.0 0.0 0.0 16.290000149 0.0 0.0 0.0 29.1751946751" Properties=species:S:1:pos:R:3:initial_magmoms:R:1 pbc="T T T"
Si       1.35518140      -1.35705475       1.30474388       0.00000000
Si       1.37259541       1.25338519      -1.43148093       0.00000000
Si      -1.30912957      -1.42910542      -1.32411621       0.00000000
Si      -1.20089881       1.40168935       1.47404754       0.00000000
Si      -2.57543925       2.64963368       0.04110785       0.00000000
Si       2.72170064       2.59662602      -0.11833459       0.00000000
Si      -2.63860373      -0.06722883      -2.68589760       0.00000000
Si       2.74374101      -0.00716760       2.59831366       0.00000000
Si      -2.56629730      -0.02624319       2.77677833       0.00000000
Si       0.00835677      -2.66390372       2.69826788       0.00000000
