10
Lattice="16.290000149 0.0 0.0 0.0 16.290000149 0.0 0.0 0.0 29.1751946751" Properties=species:S:1:pos:R:3:initial_magmoms:R:1 pbc="T T T"
Si       1.36958665       1.37003788       1.32522487       0.00000000
Si      -1.32540328       1.38254860      -1.36067273       0.00000000
Si       1.37965224      -1.34874685      -1.34092112       0.00000000
Si      -1.35174421      -1.35163181       1.37275126       0.00000000
Si      -2.68379381      -2.70687674      -0.01009462       0.00000000
Si      -2.69415425       0.03368772      -2.69841376       0.00000000
Si       2.69865029       0.00866628       2.69780108       0.00000000
Si       0.00540828       2.72375318       2.67463597       0.00000000
Si       2.70427034       0.03473028      -2.70267333       0.00000000
Si      -2.69076593       2.72987822      -0.01079482       0.00000000
