10
Lattice="16.28999089631971 0.0 0.0 0.0 16.28999089631971 0.0 0.0 0.0 34.36671206372826" Properties=species:S:1:pos:R:3:initial_magmoms:R:1 pbc="T T T"
Si       0.59943942      -1.27213497      -1.89010149       0.00000000
Si      -1.36675869       1.94341329       0.09244651       0.00000000
Si       2.09070747       1.10100852       0.34432028       0.00000000
Si      -1.13308353      -1.94183316       0.99148020       0.00000000
Si       3.04860834      -0.60852924       1.63791841       0.00000000
Si      -2.62398343      -2.18659041      -0.94439778       0.00000000
Si      -1.74397808       2.19760245       2.41663418       0.00000000
Si       2.79226890       1.57625298      -1.85631899       0.00000000
Si      -0.76953960       0.48347091       3.60177090       0.00000000
Si       1.48090761      -0.30007809       3.42265150       0.00000000
