10
Lattice="16.28999089631971 0.0 0.0 0.0 16.28999089631971 0.0 0.0 0.0 34.36671206372826" Properties=species:S:1:pos:R:3:initial_magmoms:R:1 pbc="T T T"
Si      -1.14043032       2.04323908      -0.50577518       0.00000000
Si      -1.50203574      -0.73622655       1.74538906       0.00000000
Si       1.86885396      -0.95584833      -1.25026168       0.00000000
Si       2.05749216       0.76439196       1.41659666       0.00000000
Si       0.40961205       0.15775236       2.98905818       0.00000000
Si      -1.50873093      -1.90145025      -2.25466377       0.00000000
Si       0.74171628      -2.68499925      -2.43378318       0.00000000
Si      -3.64354260       0.28882170       1.09427109       0.00000000
Si      -2.01489381       1.92399954      -2.66864542       0.00000000
Si      -3.12251281       2.52570653       0.67812434       0.00000000
