10
Lattice="16.28999089631971 0.0 0.0 0.0 16.28999089631971 0.0 0.0 0.0 34.36671206372826" Properties=species:S:1:pos:R:3:initial_magmoms:R:1 pbc="T T T"
Si       0.52102979       2.23688483      -0.41614675       0.00000000
Si      -1.52145344      -0.38937987       1.80039886       0.00000000
Si      -1.30324889      -1.19268864      -1.65606405       0.00000000
Si       2.14150686      -1.02504825       0.65111797       0.00000000
Si       1.37785121       2.58231753       1.82027314       0.00000000
Si       2.50311228       1.75441738      -1.60004627       0.00000000
Si      -2.88952022      -1.94913108       0.64422057       0.00000000
Si      -0.03885167      -1.58788404       3.25885764       0.00000000
Si       1.26816575      -2.96233650       1.72648977       0.00000000
Si       3.64354260      -0.28882170      -1.09427109       0.00000000
