10
Lattice="16.28999089631971 0.0 0.0 0.0 16.28999089631971 0.0 0.0 0.0 34.36671206372826" Properties=species:S:1:pos:R:3:initial_magmoms:R:1 pbc="T T T"
Si      -1.40147757       1.35125550      -1.22612249       0.00000000
Si       1.31773068       1.36619343       1.36181953       0.00000000
Si      -1.39054698      -1.35719809       1.35336531       0.00000000
Si       1.87844877      -0.76347972      -1.37321554       0.00000000
Si      -2.09939004      -0.47369691      -2.43328623       0.00000000
Si       2.66888844      -2.67189085       0.00305864       0.00000000
Si       2.68050321       0.00215028       2.71305067       0.00000000
Si       2.67786423       2.71979469      -0.01641355       0.00000000
Si       0.88620858      -1.08931719      -3.57033707       0.00000000
Si      -0.03482802      -2.71129870       2.71487211       0.00000000
