10
Lattice="16.28999089631971 0.0 0.0 0.0 16.28999089631971 0.0 0.0 0.0 34.36671206372826" Properties=species:S:1:pos:R:3:initial_magmoms:R:1 pbc="T T T"
Si       1.34669430       1.36480551       1.34803503       0.00000000
Si       1.35689184      -1.35327615      -1.35786392       0.00000000
Si      -1.35865116       1.35999670      -1.35772645       0.00000000
Si      -1.35136953      -1.36669911       1.36573390       0.00000000
Si      -2.67900453      -0.01894596       2.72631279       0.00000000
Si      -2.71339272      -2.71218795       0.00175270       0.00000000
Si      -0.00029322      -2.71182957      -2.71445627       0.00000000
Si       2.71511946      -2.71204134       0.00766378       0.00000000
Si      -2.71484253       0.00288207      -2.71473120       0.00000000
Si       2.71510317       0.00353912      -2.71473120       0.00000000
