10
Lattice="16.28999089631971 0.0 0.0 0.0 16.28999089631971 0.0 0.0 0.0 34.36671206372826" Properties=species:S:1:pos:R:3:initial_magmoms:R:1 pbc="T T T"
Si       2.07475956       0.51347709      -0.91381138       0.00000000
Si      -0.72518193       2.19535443       0.40772690       0.00000000
Si       0.05670549      -2.01125204       1.29407927       0.00000000
Si      -1.93329720      -0.37629411      -1.42542891       0.00000000
Si      -2.54560572       1.35940050       1.62736783       0.00000000
Si       1.25561691      -3.27125096      -0.30857888       0.00000000
Si      -0.83805534       2.90649438      -1.87064992       0.00000000
Si       2.59229286      -1.85872858      -1.70493354       0.00000000
Si       3.47177367       0.75290751       1.08485461       0.00000000
Si       1.56105441       2.39352228      -2.40529315       0.00000000
