10
Lattice="16.28999089631971 0.0 0.0 0.0 16.28999089631971 0.0 0.0 0.0 34.36671206372826" Properties=species:S:1:pos:R:3:initial_magmoms:R:1 pbc="T T T"
Si       0.74357334       1.85386716       1.20647847       0.00000000
Si       1.95668964      -1.31345360      -0.23836765       0.00000000
Si      -0.57516732       0.39164092      -2.26497379       0.00000000
Si      -1.27143450      -1.44543518       1.41267886       0.00000000
Si      -2.17144071      -1.31151509      -2.44591463       0.00000000
Si      -2.84978889       0.17729710       2.16386687       0.00000000
Si       1.47773106      -2.46953861      -2.22981662       0.00000000
Si       0.30864663      -1.89779219       3.13720143       0.00000000
Si      -0.79504974      -3.15585260      -1.84240046       0.00000000
Si       2.17214118      -2.59500419       1.72960885       0.00000000
