10
Lattice="16.28999089631971 0.0 0.0 0.0 16.28999089631971 0.0 0.0 0.0 34.36671206372826" Properties=species:S:1:pos:R:3:initial_magmoms:R:1 pbc="T T T"
Si      -0.74357334      -1.85386716      -1.20647847       0.00000000
Si       1.64783124      -0.68033556       1.52278986       0.00000000
Si       1.24168896       1.42900767      -1.40986078       0.00000000
Si      -1.40483331       1.23934320       1.49110374       0.00000000
Si       2.35993230       2.47327812       0.40786437       0.00000000
Si       1.89949545       1.42157943       2.52227751       0.00000000
Si      -2.44646478      -0.45875898       2.66586171       0.00000000
Si       0.13331736      -1.76040654       3.23373758       0.00000000
Si       1.21311630      -3.16732076      -1.44484612       0.00000000
Si      -0.32522985       2.85048936      -2.43474544       0.00000000
