10
Lattice="16.28999089631971 0.0 0.0 0.0 16.28999089631971 0.0 0.0 0.0 34.36671206372826" Properties=species:S:1:pos:R:3:initial_magmoms:R:1 pbc="T T T"
Si      -1.31773068      -1.36619343      -1.36181953       0.00000000
Si      -1.35290079       1.34998488       1.35480528       0.00000000
Si       1.36277253      -1.36404315       1.35123114       0.00000000
Si       1.36013355       1.35360126      -1.37823308       0.00000000
Si       0.56071809      -2.12967315      -2.73503507       0.00000000
Si       2.41341237      -0.31008015      -2.69251311       0.00000000
Si      -2.71920825      -0.01493793      -2.58794202       0.00000000
Si      -2.70534546       2.71137276      -0.00491444       0.00000000
Si      -2.70949941      -0.00488700       2.71105396       0.00000000
Si       0.00410508       2.70958086       2.71174130       0.00000000
