10
Lattice="16.28999089631971 0.0 0.0 0.0 16.28999089631971 0.0 0.0 0.0 34.36671206372826" Properties=species:S:1:pos:R:3:initial_magmoms:R:1 pbc="T T T"
Si       1.35290079      -1.34998488      -1.35480528       0.00000000
Si      -1.35659862      -1.35487188       1.35624868       0.00000000
Si       1.35700587       1.35959598       1.35693602       0.00000000
Si      -1.35244467       1.36138788      -1.35971972       0.00000000
Si      -2.71412577      -2.71161711      -0.00199327       0.00000000
Si       0.00143352      -2.71340901       2.71366583       0.00000000
Si      -2.71472850       0.00179190       2.71277230       0.00000000
Si       2.71554300       0.00188964       2.71332217       0.00000000
Si       2.71347417       2.71614573      -0.00219947       0.00000000
Si       2.71567332      -2.71402803      -0.00357414       0.00000000
