10
Lattice="16.28999089631971 0.0 0.0 0.0 16.28999089631971 0.0 0.0 0.0 34.36671206372826" Properties=species:S:1:pos:R:3:initial_magmoms:R:1 pbc="T T T"
Si      -1.35674523       1.35817875       1.35576755       0.00000000
Si       1.35646830       1.35654975      -1.35913549       0.00000000
Si       1.35853713      -1.35770634       1.35638615       0.00000000
Si      -1.35700587      -1.35959598      -1.35693602       0.00000000
Si      -0.00410508      -2.70958086      -2.71174130       0.00000000
Si      -2.70945054       0.00179190      -2.71665574       0.00000000
Si      -0.00040725       2.71357191       2.71315033       0.00000000
Si      -2.71360449      -2.71446786      -0.00068733       0.00000000
Si      -2.71450044      -0.00058644       2.71380330       0.00000000
Si      -2.71363707       2.71485882      -0.00082480       0.00000000
