10
Lattice="16.28999089631971 0.0 0.0 0.0 16.28999089631971 0.0 0.0 0.0 34.36671206372826" Properties=species:S:1:pos:R:3:initial_magmoms:R:1 pbc="T T T"
Si      -1.35606105      -1.35685926      -1.35769209       0.00000000
Si       1.35925389      -1.35536058       1.35617995       0.00000000
Si      -1.35483930       1.35936792       1.35827632       0.00000000
Si       1.35804843       1.35843939      -1.35803575       0.00000000
Si      -0.01006722      -2.70994901       2.70486795       0.00000000
Si       2.71467963      -2.71336828      -0.00092790       0.00000000
Si      -2.71409319       0.00167787      -2.71510924       0.00000000
Si       0.00081450      -2.71407527      -2.71559037       0.00000000
Si      -2.71541268      -2.71475782      -0.00089354       0.00000000
Si       2.71450044       2.71593396      -0.00024057       0.00000000
