10
Lattice="16.28999089631971 0.0 0.0 0.0 16.28999089631971 0.0 0.0 0.0 34.36671206372826" Properties=species:S:1:pos:R:3:initial_magmoms:R:1 pbc="T T T"
Si       0.89254539       2.11001112      -0.46175140       0.00000000
Si       1.56691881      -1.42148169       1.02488466       0.00000000
Si      -0.05416425      -0.95496867      -2.15115118       0.00000000
Si      -2.26667205      -0.00509877       0.79177512       0.00000000
Si      -1.98268848      -2.39432049      -1.92189071       0.00000000
Si      -0.81342486       3.22934589      -1.70531157       0.00000000
Si       0.32522985      -2.85048936       2.43474544       0.00000000
Si       1.15953849       3.25123965       1.57739860       0.00000000
Si       3.23993439      -1.95797655      -0.72589410       0.00000000
Si       2.27157534      -1.34754138      -2.83174992       0.00000000
