10
Lattice="16.28999089631971 0.0 0.0 0.0 16.28999089631971 0.0 0.0 0.0 34.36671206372826" Properties=species:S:1:pos:R:3:initial_magmoms:R:1 pbc="T T T"
Si       1.46196234      -1.21189455       1.37592020       0.00000000
Si      -1.27576764       1.49130063       1.35891898       0.00000000
Si      -0.91469979      -1.75980870      -1.35636694       0.00000000
Si       0.87047244       1.91852217      -1.18964427       0.00000000
Si       2.57399919      -2.71306692      -0.05885990       0.00000000
Si       0.09607842      -2.56381794       2.73311740       0.00000000
Si      -2.61646722       0.15110604       2.73084920       0.00000000
Si      -2.71430496      -2.82300813      -0.17504695       0.00000000
Si       2.81188206       0.15118749       2.73133033       0.00000000
Si      -2.60942994       2.94953256      -0.01093206       0.00000000
