10
Lattice="16.28999089631971 0.0 0.0 0.0 16.28999089631971 0.0 0.0 0.0 34.36671206372826" Properties=species:S:1:pos:R:3:initial_magmoms:R:1 pbc="T T T"
Si       1.82042379       0.83595393      -1.21964093       0.00000000
Si       1.16631513      -0.06478533       2.08468592       0.00000000
Si      -1.75096323       1.63740564      -0.13014681       0.00000000
Si      -0.94727979      -2.21668781      -0.41525321       0.00000000
Si       2.54560572      -1.35940050      -1.62736783       0.00000000
Si      -3.12927805       0.49637259       1.36858634       0.00000000
Si      -2.93176506      -1.73121975       0.70152809       0.00000000
Si      -2.05372917       1.36862064      -2.48629554       0.00000000
Si       0.61230852      -1.73569461      -3.05279674       0.00000000
Si       2.48718978       2.71103067       0.05698004       0.00000000
