10
Lattice="16.28999089631971 0.0 0.0 0.0 16.28999089631971 0.0 0.0 0.0 34.36671206372826" Properties=species:S:1:pos:R:3:initial_magmoms:R:1 pbc="T T T"
Si       0.27360684       0.19684836      -2.33466952       0.00000000
Si      -0.77519223      -2.15769195       0.60114286       0.00000000
Si      -1.92511962       1.37020077       0.25448565       0.00000000
Si       2.04721317       0.26938773       1.29803144       0.00000000
Si      -1.17516060       3.04274394       1.69232095       0.00000000
Si      -2.18062827      -1.69604964       2.46581297       0.00000000
Si       3.53470194      -1.21070538       0.19200693       0.00000000
Si      -3.36799008       0.19435599       1.65853845       0.00000000
Si       2.91555162       2.30829300       0.65118082       0.00000000
Si       1.51003413      -1.62740358      -3.11706253       0.00000000
