10
Lattice="16.28999089631971 0.0 0.0 0.0 16.28999089631971 0.0 0.0 0.0 34.36671206372826" Properties=species:S:1:pos:R:3:initial_magmoms:R:1 pbc="T T T"
Si      -0.47564845      -1.25426647       1.89432859       0.00000000
Si       1.98448527      -0.48546806      -1.11678130       0.00000000
Si      -0.19751299       2.22759234       0.66705825       0.00000000
Si      -1.59591731       0.19269441      -1.69857569       0.00000000
Si       2.93176506       1.73121975      -0.70152809       0.00000000
Si      -3.43958693       1.14021855      -0.52941950       0.00000000
Si       1.18080183       3.36862539      -0.83167490       0.00000000
Si      -2.45462837      -0.26860418       2.84068527       0.00000000
Si      -2.44293215       2.88626220       0.61451152       0.00000000
Si       1.66814976      -1.39120510      -3.29882817       0.00000000
