10
Lattice="16.28999089631971 0.0 0.0 0.0 16.28999089631971 0.0 0.0 0.0 34.36671206372826" Properties=species:S:1:pos:R:3:initial_magmoms:R:1 pbc="T T T"
Si      -0.73637316      -1.71740583       1.49216021       0.00000000
Si       1.74293226       0.83062710       1.50869061       0.00000000
Si      -1.74576672       1.78388532       0.21118356       0.00000000
Si      -0.07755669      -0.94402179      -2.45172261       0.00000000
Si      -2.09082150      -0.38675718       2.93139424       0.00000000
Si       2.90502828       2.19931290       0.06653399       0.00000000
Si       0.63089541       2.33179947       2.94347071       0.00000000
Si      -2.53664622      -2.82227508       0.35710818       0.00000000
Si      -3.54537189       0.72068589       1.39250356       0.00000000
Si      -0.83106693       3.54369402       1.56755051       0.00000000
