10
Lattice="16.28999089631971 0.0 0.0 0.0 16.28999089631971 0.0 0.0 0.0 34.36671206372826" Properties=species:S:1:pos:R:3:initial_magmoms:R:1 pbc="T T T"
Si      -1.79960517      -1.06319943       1.18132000       0.00000000
Si       0.91469979       1.75980870       1.35636694       0.00000000
Si       1.74576672      -1.78388532      -0.21118356       0.00000000
Si      -0.34505478      -2.17064250       2.72021067       0.00000000
Si       2.37666213       0.54791415       2.73228714       0.00000000
Si       3.48869898      -0.95325822       1.29750704       0.00000000
Si       1.00939356      -3.50129115       1.28097665       0.00000000
Si      -1.90465938      -0.31837176      -3.42357940       0.00000000
Si      -2.65847913      -2.98509363      -0.17255536       0.00000000
Si       1.78517223       3.67833087       0.16672268       0.00000000
