10
Lattice="16.28999089631971 0.0 0.0 0.0 16.28999089631971 0.0 0.0 0.0 34.36671206372826" Properties=species:S:1:pos:R:3:initial_magmoms:R:1 pbc="T T T"
Si      -0.54203346      -2.18496141       0.65382706       0.00000000
Si       1.12713768       1.72915092       1.18352149       0.00000000
Si      -2.25044721       0.78354900       0.17911940       0.00000000
Si       1.56770073      -0.30845115      -1.78473309       0.00000000
Si       0.60979986       1.40108661      -3.07833122       0.00000000
Si      -0.74171628       2.68499925       2.43378318       0.00000000
Si       1.28373345      -3.50668314      -0.11416628       0.00000000
Si      -1.48090761       0.30007809      -3.42265150       0.00000000
Si       1.53435510      -2.61645093      -2.38962193       0.00000000
Si      -3.74136014      -0.95522931      -0.46154520       0.00000000
