10
Lattice="16.28999089631971 0.0 0.0 0.0 16.28999089631971 0.0 0.0 0.0 34.36671206372826" Properties=species:S:1:pos:R:3:initial_magmoms:R:1 pbc="T T T"
Si      -0.34551090       1.60164909      -1.78652016       0.00000000
Si      -1.07051364      -2.04100668       0.89728099       0.00000000
Si       2.16808497      -0.25055649       1.21283631       0.00000000
Si      -1.47795912       1.55385423       1.28844312       0.00000000
Si       0.18251316       1.79077599       3.03595704       0.00000000
Si       2.61154764      -1.61808570      -1.74088114       0.00000000
Si      -2.09381886       0.36427698      -2.87381480       0.00000000
Si       2.64396474      -2.36600847       0.51261416       0.00000000
Si       0.39069936       3.54588407      -0.39074973       0.00000000
Si       1.23005790      -0.30698505       3.42337320       0.00000000
