10
Lattice="16.28999089631971 0.0 0.0 0.0 16.28999089631971 0.0 0.0 0.0 34.36671206372826" Properties=species:S:1:pos:R:3:initial_magmoms:R:1 pbc="T T T"
Si       0.47564845       1.25426647      -1.89432859       0.00000000
Si      -0.66625027      -2.25191887      -0.37366947       0.00000000
Si      -1.97897992       0.98566229       0.94635668       0.00000000
Si       1.93654054      -0.25356721       1.46271682       0.00000000
Si      -0.96600256      -2.48076079       1.91642640       0.00000000
Si      -2.41279891      -0.68829064       2.64094583       0.00000000
Si       1.18399630      -2.17802743       2.74535196       0.00000000
Si       0.27813546       3.48185881      -1.22727034       0.00000000
Si      -3.54042529       0.78288763      -0.79792677       0.00000000
Si       2.46013372       0.76879841      -3.01110989       0.00000000
