10
Lattice="16.28999089631971 0.0 0.0 0.0 16.28999089631971 0.0 0.0 0.0 34.36671206372826" Properties=species:S:1:pos:R:3:initial_magmoms:R:1 pbc="T T T"
Si      -0.40495311       1.83680731      -1.39071851       0.00000000
Si       0.47895858       1.15608501       1.99144898       0.00000000
Si       1.81793142      -1.42076493      -0.65372396       0.00000000
Si      -2.27278080      -0.68631399       0.38741616       0.00000000
Si      -2.05289838       2.86117953      -0.03515717       0.00000000
Si       0.94959297      -3.45967020      -0.00687335       0.00000000
Si       1.75493799       2.34620376      -2.13376161       0.00000000
Si      -1.47773106       2.46953861       2.22981662       0.00000000
Si      -3.64917177       1.15802352      -0.21609801       0.00000000
Si       2.62234791       2.13562944       1.82892870       0.00000000
