10
Lattice="16.28999089631971 0.0 0.0 0.0 16.28999089631971 0.0 0.0 0.0 34.36671206372826" Properties=species:S:1:pos:R:3:initial_magmoms:R:1 pbc="T T T"
Si      -1.34863281       1.35130916      -1.35463345       0.00000000
Si      -1.35347094      -1.35852487       1.35566445       0.00000000
Si       1.36057338       1.35524971       1.35593938       0.00000000
Si       1.36148562      -1.35782440      -1.36484037       0.00000000
Si       0.00535941       2.69826247      -2.72549486       0.00000000
Si      -2.71166598       2.71279315      -0.00391781       0.00000000
Si      -2.71150308      -0.00094397       2.71311597       0.00000000
Si       0.00322542       2.71391716       2.71277230       0.00000000
Si      -2.71103067      -2.71751812      -0.00154650       0.00000000
Si       0.00363267      -2.71597057       2.71363147       0.00000000
