10
Lattice="16.28999089631971 0.0 0.0 0.0 16.28999089631971 0.0 0.0 0.0 34.36671206372826" Properties=species:S:1:pos:R:3:initial_magmoms:R:1 pbc="T T T"
Si      -1.35542574       1.35800770       1.35710785       0.00000000
Si      -1.35633798      -1.35784712      -1.35697038       0.00000000
Si       1.35839052       1.35701401      -1.35731405       0.00000000
Si       1.35878148      -1.36208465       1.36016649       0.00000000
Si      -2.71467963       2.71336828       0.00092790       0.00000000
Si       2.71414206       2.71403617      -0.00041240       0.00000000
Si       0.00179190       2.71419907      -2.71400950       0.00000000
Si      -2.71386513      -0.00070699      -2.71466247       0.00000000
Si      -2.71454931      -2.71466238      -0.00010310       0.00000000
Si       0.00169416      -2.71542801      -2.71442190       0.00000000
