10
Lattice="16.28999089631971 0.0 0.0 0.0 16.28999089631971 0.0 0.0 0.0 34.36671206372826" Properties=species:S:1:pos:R:3:initial_magmoms:R:1 pbc="T T T"
Si       1.34978940       1.35883035      -1.36174736       0.00000000
Si      -1.36275624      -1.35179307      -1.36339696       0.00000000
Si      -1.30295565       1.33100703       1.46457262       0.00000000
Si       1.43299872      -1.32670647       1.42453538       0.00000000
Si       2.15050806       0.58513680       2.52739815       0.00000000
Si      -0.37120023      -2.05737813       2.75872062       0.00000000
Si       0.41358681       2.35849878       2.88721783       0.00000000
Si      -2.72046258       2.70384678       0.01220019       0.00000000
Si       2.70894555      -2.71811030       0.01470896       0.00000000
Si       2.70681156       0.00423540      -2.72091721       0.00000000
