10
Lattice="16.28999089631971 0.0 0.0 0.0 16.28999089631971 0.0 0.0 0.0 34.36671206372826" Properties=species:S:1:pos:R:3:initial_magmoms:R:1 pbc="T T T"
Si      -0.46827560      -2.11131825      -0.77115508       0.00000000
Si       0.87446349       0.11923954       2.16287023       0.00000000
Si       2.01323223       0.60048198      -1.03784092       0.00000000
Si      -1.92633227       1.32050324      -0.34212081       0.00000000
Si      -0.93775014       2.56217591      -2.09688611       0.00000000
Si      -1.88199089       2.38945304       1.83099071       0.00000000
Si       1.03969296       1.53883811      -3.02891186       0.00000000
Si      -1.10761900       0.60170699       3.34676976       0.00000000
Si      -3.56551352      -0.38166932      -0.85504427       0.00000000
Si      -2.70624860      -2.50037232      -0.17554526       0.00000000
