10
Lattice="16.28999089631971 0.0 0.0 0.0 16.28999089631971 0.0 0.0 0.0 34.36671206372826" Properties=species:S:1:pos:R:3:initial_magmoms:R:1 pbc="T T T"
Si      -2.07475956      -0.51347709       0.91381138       0.00000000
Si       1.39701411       0.23943042       1.99866599       0.00000000
Si      -0.51370515       1.88004519      -1.49148177       0.00000000
Si       0.51753330      -2.37220567      -0.79112215       0.00000000
Si      -2.79994149       1.68187734       1.32153828       0.00000000
Si      -0.61095645      -2.02961997      -2.82147427       0.00000000
Si       3.60403218       0.51609978       1.10245037       0.00000000
Si      -2.91281490       2.39301729      -0.95683853       0.00000000
Si      -2.01805407      -2.52472913       2.20789065       0.00000000
Si      -0.81914265      -3.78472805       0.60523250       0.00000000
