10
Lattice="16.28999089631971 0.0 0.0 0.0 16.28999089631971 0.0 0.0 0.0 34.36671206372826" Properties=species:S:1:pos:R:3:initial_magmoms:R:1 pbc="T T T"
Si       1.35645201       1.35749457       1.35779519       0.00000000
Si      -1.35853713       1.35770634      -1.35638615       0.00000000
Si       1.35842310      -1.35760860      -1.35690165       0.00000000
Si      -1.35804843      -1.35843939       1.35803575       0.00000000
Si       0.00120546      -2.71379997       2.71421570       0.00000000
Si      -2.71554300      -0.00188964      -2.71332217       0.00000000
Si      -2.71288773       0.00092853       2.71631207       0.00000000
Si      -2.71410948      -2.71529865       0.00034367       0.00000000
Si       2.71375110      -0.00317655       2.71586531       0.00000000
Si       2.71471221      -0.00180819      -2.71500614       0.00000000
