10
Lattice="16.28999089631971 0.0 0.0 0.0 16.28999089631971 0.0 0.0 0.0 34.36671206372826" Properties=species:S:1:pos:R:3:initial_magmoms:R:1 pbc="T T T"
Si       1.34304534       1.33968960       1.37033904       0.00000000
Si      -1.35922131       1.35378045      -1.35635178       0.00000000
Si       1.35617508      -1.36000323      -1.35532078       0.00000000
Si      -1.35677781      -1.37565792       1.37669689       0.00000000
Si       2.63163321      -0.14564889       2.69479850       0.00000000
Si      -2.71218726       2.71239903       0.00103100       0.00000000
Si      -0.00042354       2.71213839      -2.71249737       0.00000000
Si      -0.04965192       2.52372825       2.89048267       0.00000000
Si       2.71420722      -0.00192222      -2.71352837       0.00000000
Si      -2.71555929      -0.00161271      -2.71373457       0.00000000
