10
Lattice="16.28999089631971 0.0 0.0 0.0 16.28999089631971 0.0 0.0 0.0 34.36671206372826" Properties=species:S:1:pos:R:3:initial_magmoms:R:1 pbc="T T T"
Si       0.97353927      -0.93835613       1.99107094       0.00000000
Si      -1.97744310       1.02333780       0.93202575       0.00000000
Si       0.83422719       1.72690290      -1.48278699       0.00000000
Si      -0.37820493      -1.97988530      -1.34906604       0.00000000
Si      -1.32556128       2.60273475      -1.98842470       0.00000000
Si      -0.83984724       2.76535782       2.06540618       0.00000000
Si      -1.03969296      -1.53883811       3.02891186       0.00000000
Si       2.55189366      -2.56108841       1.23988293       0.00000000
Si       1.44515106       3.23846829       1.62265958       0.00000000
Si       1.65188745      -2.42716832      -2.61871056       0.00000000
