10
Lattice="16.28999089631971 0.0 0.0 0.0 16.28999089631971 0.0 0.0 0.0 34.36671206372826" Properties=species:S:1:pos:R:3:initial_magmoms:R:1 pbc="T T T"
Si       0.67637709       2.18017215      -0.62337814       0.00000000
Si       0.96835905      -0.61043517       2.10585583       0.00000000
Si       0.59680044      -1.58848677      -1.71733993       0.00000000
Si      -2.32573959       0.39257271       0.68059875       0.00000000
Si       0.54275022      -3.48014999      -0.30356134       0.00000000
Si      -2.93338917       1.72903689      -1.11784667       0.00000000
Si       1.77391584      -2.77157408       1.55701913       0.00000000
Si      -1.05922467       2.79134037      -2.09915431       0.00000000
Si       0.76297473       3.32537544       1.40157840       0.00000000
Si      -2.27157534       1.34754138       2.83174992       0.00000000
