10
Lattice="16.28999089631971 0.0 0.0 0.0 16.28999089631971 0.0 0.0 0.0 34.36671206372826" Properties=species:S:1:pos:R:3:initial_magmoms:R:1 pbc="T T T"
Si      -0.08659764      -1.14520329      -2.02495654       0.00000000
Si       0.46191924       2.19849840      -0.68427599       0.00000000
Si      -2.14200468       0.13217706       0.96842012       0.00000000
Si       1.95020622      -0.61183611       1.24747798       0.00000000
Si       1.67223366      -0.02031363      -3.17906011       0.00000000
Si      -0.76297473      -3.32537544      -1.40157840       0.00000000
Si       2.73590550       2.56328037      -0.08268636       0.00000000
Si      -1.87501158       1.27340559       3.00757012       0.00000000
Si       3.73896225       0.45004383       0.06667146       0.00000000
Si       1.75987386       0.56527929       3.30848522       0.00000000
