10
Lattice="16.28999089631971 0.0 0.0 0.0 16.28999089631971 0.0 0.0 0.0 34.36671206372826" Properties=species:S:1:pos:R:3:initial_magmoms:R:1 pbc="T T T"
Si      -0.47587977       2.11545198       0.70022215       0.00000000
Si      -1.88651232      -1.06914528       0.71561845       0.00000000
Si       1.73123604      -1.59949881       0.07753135       0.00000000
Si      -0.03241710       0.74792277      -2.25349530       0.00000000
Si       1.73894121      -1.09985193      -2.29576638       0.00000000
Si      -2.64396474       2.36600847      -0.51261416       0.00000000
Si       1.73077992       3.13631370       0.41862115       0.00000000
Si       3.50862165      -0.45203121       1.06908028       0.00000000
Si      -1.64186910      -1.41338556       3.04234925       0.00000000
Si      -3.71447838       0.32500179       0.38466682       0.00000000
