10
Lattice="16.28999089631971 0.0 0.0 0.0 16.28999089631971 0.0 0.0 0.0 34.36671206372826" Properties=species:S:1:pos:R:3:initial_magmoms:R:1 pbc="T T T"
Si      -1.23642729       1.82425194       0.78239300       0.00000000
Si      -0.24464322       0.34424028      -2.32673081       0.00000000
Si      -0.25945083      -2.31583527       0.49261273       0.00000000
Si       2.20356459       0.34116147       0.91020288       0.00000000
Si       0.22796226       3.47240898      -0.13159021       0.00000000
Si       0.50811768      -3.02373351      -1.68249206       0.00000000
Si      -3.19775958       1.59853770      -0.52594846       0.00000000
Si       1.64186910       1.41338556      -3.04234925       0.00000000
Si      -1.02565098      -1.61003844      -3.26274310       0.00000000
Si       3.23498223      -1.80211383       0.81428533       0.00000000
