10
Lattice="16.28999089631971 0.0 0.0 0.0 16.28999089631971 0.0 0.0 0.0 34.36671206372826" Properties=species:S:1:pos:R:3:initial_magmoms:R:1 pbc="T T T"
Si       1.33312962       1.34547255      -1.34770168       0.00000000
Si      -1.35680943       1.35361755       1.35425541       0.00000000
Si       1.35898185      -1.35967743       1.35298384       0.00000000
Si      -1.35597677      -1.35492075      -1.38091712       0.00000000
Si       2.70680016      -0.01298313      -2.58777019       0.00000000
Si      -0.01985588       2.61462645      -2.79495690       0.00000000
Si       0.00127714       2.71156824       2.71098523       0.00000000
Si      -2.71419323      -0.00286704       2.71081340       0.00000000
Si      -2.71513805       2.71145421      -0.00814492       0.00000000
Si       2.71650900      -0.00293220       2.71122580       0.00000000
