10
Lattice="16.28999089631971 0.0 0.0 0.0 16.28999089631971 0.0 0.0 0.0 34.36671206372826" Properties=species:S:1:pos:R:3:initial_magmoms:R:1 pbc="T T T"
Si       1.35347094       1.35852487      -1.35566445       0.00000000
Si       1.35710361      -1.35744570       1.35796702       0.00000000
Si      -1.35803214       1.35758089       1.35745152       0.00000000
Si      -1.35755973      -1.35899325      -1.35721095       0.00000000
Si       0.00483813       2.70983403      -2.71029789       0.00000000
Si       2.71404432       2.71377458       0.00027493       0.00000000
Si      -0.00249237      -2.71236645      -2.71565910       0.00000000
Si       2.71443528      -2.71479366      -0.00024057       0.00000000
Si      -0.00169416       2.71542801       2.71442190       0.00000000
Si      -2.71555929       2.71472103      -0.00024057       0.00000000
