10
Lattice="16.28999089631971 0.0 0.0 0.0 16.28999089631971 0.0 0.0 0.0 34.36671206372826" Properties=species:S:1:pos:R:3:initial_magmoms:R:1 pbc="T T T"
Si       1.35742941      -1.35791811      -1.36494347       0.00000000
Si      -1.35822762       1.35876519      -1.36552770       0.00000000
Si       1.37132478       1.35666378       1.38064906       0.00000000
Si      -1.36533006      -1.36519974       1.39260868       0.00000000
Si       2.71510317       2.71134292      -0.00525811       0.00000000
Si      -2.71221984      -2.71485882      -0.00838548       0.00000000
Si      -2.71511946       2.71204134      -0.00766378       0.00000000
Si       2.71642266      -2.71290402      -0.00127157       0.00000000
Si       2.71511946       0.00055386      -2.72187948       0.00000000
Si      -0.00045612      -2.71511946      -2.72191385       0.00000000
