10
Lattice="16.28999089631971 0.0 0.0 0.0 16.28999089631971 0.0 0.0 0.0 34.36671206372826" Properties=species:S:1:pos:R:3:initial_magmoms:R:1 pbc="T T T"
Si       0.48759228      -1.67941755       1.54856491       0.00000000
Si       1.02615597       1.93766033       0.90896568       0.00000000
Si       0.98101638       0.28605240      -2.15290388       0.00000000
Si      -2.37954546      -0.16198776      -0.33689707       0.00000000
Si      -0.45160767       2.09910726      -2.46739384       0.00000000
Si      -0.09031176       3.43995020      -0.50440051       0.00000000
Si       0.30287997       1.36984239       3.27047561       0.00000000
Si      -2.59499700       1.11956283      -2.30487357       0.00000000
Si      -1.65152907      -2.63117709       1.92666769       0.00000000
Si       3.30976962       1.62816222       0.28015759       0.00000000
