10
Lattice="16.28999089631971 0.0 0.0 0.0 16.28999089631971 0.0 0.0 0.0 34.36671206372826" Properties=species:S:1:pos:R:3:initial_magmoms:R:1 pbc="T T T"
Si      -1.22507316       1.98228123       0.46271367       0.00000000
Si      -0.38473722      -1.66891050       1.71445312       0.00000000
Si       2.08921598       1.23823548       0.22520519       0.00000000
Si      -1.82490354      -1.11653289      -1.58568098       0.00000000
Si      -2.22840684      -0.72138636       2.88360932       0.00000000
Si      -3.43873755       1.42275231      -0.20056424       0.00000000
Si      -2.82012480       0.85128282      -2.37171686       0.00000000
Si      -0.49220235       2.76850179       2.57210927       0.00000000
Si       2.39198192       1.50702048       2.58135392       0.00000000
Si      -0.32268861       3.72953034      -0.92267800       0.00000000
