10
Lattice="16.28999089631971 0.0 0.0 0.0 16.28999089631971 0.0 0.0 0.0 34.36671206372826" Properties=species:S:1:pos:R:3:initial_magmoms:R:1 pbc="T T T"
Si      -1.35697329       1.35694071      -1.35679855       0.00000000
Si       1.35721764      -1.35664749      -1.35731405       0.00000000
Si       1.35754344       1.35620766       1.35800139       0.00000000
Si      -1.35915615      -1.35772263       1.35686728       0.00000000
Si       2.71538847       0.00154755       2.71081340       0.00000000
Si      -0.00140094       2.71298547      -2.71404387       0.00000000
Si       0.00283446      -2.71189404       2.71569347       0.00000000
Si       2.71460144      -0.00016290      -2.71387203       0.00000000
Si      -2.71490769      -2.71474479      -0.00003437       0.00000000
Si      -2.71521720      -0.00175932      -2.71483430       0.00000000
