10
Lattice="16.28999089631971 0.0 0.0 0.0 16.28999089631971 0.0 0.0 0.0 34.36671206372826" Properties=species:S:1:pos:R:3:initial_magmoms:R:1 pbc="T T T"
Si       0.73287081       0.78622056       2.10939560       0.00000000
Si       1.22507316      -1.98228123      -0.46271367       0.00000000
Si      -2.21366439      -0.55952892      -0.66327791       0.00000000
Si       0.90238455       1.74724911      -1.38539167       0.00000000
Si       3.31428914      -0.74404575      -0.23750848       0.00000000
Si      -1.59505164      -1.13099841      -2.83443053       0.00000000
Si      -0.85722867       2.42475021       2.54578435       0.00000000
Si      -0.00667890      -0.95762394       3.56482667       0.00000000
Si       3.20573909       1.61388288      -0.86789743       0.00000000
Si      -2.69757513      -2.44249002       0.81005822       0.00000000
