10
Lattice="16.28999089631971 0.0 0.0 0.0 16.28999089631971 0.0 0.0 0.0 34.36671206372826" Properties=species:S:1:pos:R:3:initial_magmoms:R:1 pbc="T T T"
Si      -1.64616966      -0.81744849      -1.40099417       0.00000000
Si       1.14708383      -1.47769848       1.38748804       0.00000000
Si       1.79896564       0.10169847      -1.53296242       0.00000000
Si      -0.47012940       2.19274803       0.79782367       0.00000000
Si       2.28467969       0.26432154       2.52086847       0.00000000
Si       1.94012175       2.40701040      -1.86927525       0.00000000
Si       1.23316670       2.44970649       2.37584087       0.00000000
Si      -0.05442489       3.54369402      -1.10578395       0.00000000
Si      -1.16919846      -3.24169208      -1.40996388       0.00000000
Si      -3.72672846       0.10098171      -0.69785085       0.00000000
