10
Lattice="16.28999089631971 0.0 0.0 0.0 16.28999089631971 0.0 0.0 0.0 34.36671206372826" Properties=species:S:1:pos:R:3:initial_magmoms:R:1 pbc="T T T"
Si      -1.96462287       0.93232557      -0.78751365       0.00000000
Si      -0.26293689       0.34300224       2.36185361       0.00000000
Si       0.08843841      -2.25828270      -1.03148307       0.00000000
Si       2.09064950       1.43562141      -0.00687335       0.00000000
Si       3.01999400      -0.54755577       0.92150953       0.00000000
Si       0.90391958       2.72222190       1.70582707       0.00000000
Si       2.39179295      -2.39164893      -0.51398883       0.00000000
Si       1.98718845      -0.31381056       3.06537496       0.00000000
Si      -1.67117481      -1.58078160       2.89969295       0.00000000
Si       0.92887911       3.25037628      -1.76431925       0.00000000
