10
Lattice="16.28999089631971 0.0 0.0 0.0 16.28999089631971 0.0 0.0 0.0 34.36671206372826" Properties=species:S:1:pos:R:3:initial_magmoms:R:1 pbc="T T T"
Si      -0.98025075      -1.78246809      -1.11042345       0.00000000
Si      -0.19976427       0.99297324       2.10547779       0.00000000
Si       1.82909007       0.93879270      -1.11142009       0.00000000
Si      -1.80473652       1.71069435       0.02519081       0.00000000
Si      -2.15515071      -0.30690360      -2.45474688       0.00000000
Si       0.58437117       2.40789006      -2.45605282       0.00000000
Si       1.22538267       3.00631950       1.39577042       0.00000000
Si       3.18419001       2.07290250       0.37518161       0.00000000
Si      -2.61031775      -2.78394471       0.15873993       0.00000000
Si       1.74123810       0.10595016       3.45667456       0.00000000
