10
Lattice="16.28999089631971 0.0 0.0 0.0 16.28999089631971 0.0 0.0 0.0 34.36671206372826" Properties=species:S:1:pos:R:3:initial_magmoms:R:1 pbc="T T T"
Si       0.70622037       2.17720737      -0.45838346       0.00000000
Si      -2.22005007      -0.34495704      -0.69338317       0.00000000
Si      -0.08786826       0.19311795       2.34329557       0.00000000
Si       1.59899449      -1.65006297      -0.66630219       0.00000000
Si       3.08989439      -1.40530572       1.26957579       0.00000000
Si      -2.26699785      -0.57352203       2.82573575       0.00000000
Si       1.00597266       2.40604929      -2.74847933       0.00000000
Si      -2.98755342       1.65076344      -1.66049735       0.00000000
Si       2.85621922       2.47994073       0.37054210       0.00000000
Si      -2.29089528      -1.77588693      -2.47694779       0.00000000
