10
Lattice="16.28999089631971 0.0 0.0 0.0 16.28999089631971 0.0 0.0 0.0 34.36671206372826" Properties=species:S:1:pos:R:3:initial_magmoms:R:1 pbc="T T T"
Si       1.53262836       0.94003074      -1.59368843       0.00000000
Si      -1.01055015      -1.77748335      -1.47251133       0.00000000
Si      -2.01417705       1.59988977      -0.01690843       0.00000000
Si       1.76727654      -0.10598274       1.97880202       0.00000000
Si       2.95016854       2.28959208      -0.22616746       0.00000000
Si       0.21862809       2.19804228      -3.02898059       0.00000000
Si      -2.90406717       1.16431146       2.30514850       0.00000000
Si      -2.46396024      -0.54591048      -3.00970086       0.00000000
Si      -1.12622544      -2.42403345       2.95560762       0.00000000
Si      -1.26324063       3.52361971      -1.40401844       0.00000000
