10
Lattice="16.28999089631971 0.0 0.0 0.0 16.28999089631971 0.0 0.0 0.0 34.36671206372826" Properties=species:S:1:pos:R:3:initial_magmoms:R:1 pbc="T T T"
Si      -1.77927851      -0.63350181       1.46996961       0.00000000
Si       1.86759963      -1.62106677       0.31847997       0.00000000
Si       0.85887396       1.92189420       1.35387536       0.00000000
Si      -0.54335295      -0.61585974      -2.37061712       0.00000000
Si      -0.42629301      -1.90265571       2.91722483       0.00000000
Si       0.94737753      -3.26111139       1.67715632       0.00000000
Si       2.31342435       0.81445113       2.89276603       0.00000000
Si      -1.67326970       2.58229080      -2.39969138       0.00000000
Si      -3.68978993      -1.40703246       0.37832929       0.00000000
Si       3.66787269      -0.51619752       1.45353200       0.00000000
