10
Lattice="16.28999089631971 0.0 0.0 0.0 16.28999089631971 0.0 0.0 0.0 34.36671206372826" Properties=species:S:1:pos:R:3:initial_magmoms:R:1 pbc="T T T"
Si      -1.35447440      -1.34768799       1.39898715       0.00000000
Si       1.35972630       1.37135736       1.39919335       0.00000000
Si      -1.41822532       1.33851672      -1.51088523       0.00000000
Si       1.26188856      -1.60275681      -1.50670280       0.00000000
Si      -2.69179937      -2.70303228       0.03490629       0.00000000
Si       2.70042588       2.71155195       0.02726313       0.00000000
Si       2.71643895      -2.71019988       0.03218788       0.00000000
Si      -2.72524274       2.71296918       0.02148264       0.00000000
Si       0.00171045      -2.70299970       2.75815700       0.00000000
Si      -2.71425755       0.00887805       2.75788207       0.00000000
