10
Lattice="16.28999089631971 0.0 0.0 0.0 16.28999089631971 0.0 0.0 0.0 34.36671206372826" Properties=species:S:1:pos:R:3:initial_magmoms:R:1 pbc="T T T"
Si       1.35768679       1.35760860      -1.35683292       0.00000000
Si      -1.35771380      -1.35742941      -1.35710785       0.00000000
Si       1.35714922      -1.35632169       1.35978846       0.00000000
Si      -1.35550638       1.35894438       1.36033832       0.00000000
Si      -0.02111510      -2.70822879       2.71425007       0.00000000
Si       2.71487185       2.71362078       0.00092790       0.00000000
Si      -0.00018082      -2.71474479      -2.71418134       0.00000000
Si       2.71501846       0.00008145      -2.71407824       0.00000000
Si       2.71415509      -2.71536381       0.00054987       0.00000000
Si      -2.71526022       0.00032580      -2.71442190       0.00000000
