10
Lattice="16.28999089631971 0.0 0.0 0.0 16.28999089631971 0.0 0.0 0.0 34.36671206372826" Properties=species:S:1:pos:R:3:initial_magmoms:R:1 pbc="T T T"
Si      -1.33593557      -1.35684297      -1.37886199       0.00000000
Si       1.37856080       1.35633798      -1.37944623       0.00000000
Si       1.28132579      -1.46813625       1.37013284       0.00000000
Si      -1.41070164       1.48931325       1.42164857       0.00000000
Si       2.47908062      -0.04347801       2.87082490       0.00000000
Si      -2.69969676      -2.71549413       0.01457149       0.00000000
Si      -2.69722068      -0.00164529      -2.73854735       0.00000000
Si       2.74058399       2.70182682      -0.01546503       0.00000000
Si       2.73797759      -2.70922248      -0.02625618       0.00000000
Si       0.01888174       2.71393029      -2.73871918       0.00000000
