10
Lattice="16.28999089631971 0.0 0.0 0.0 16.28999089631971 0.0 0.0 0.0 34.36671206372826" Properties=species:S:1:pos:R:3:initial_magmoms:R:1 pbc="T T T"
Si      -1.19775483      -1.42465824      -1.50069205       0.00000000
Si      -1.39602042       1.39517334       1.35738278       0.00000000
Si       1.49494959       1.35104373      -1.35538951       0.00000000
Si       0.89990847      -2.06731503       0.95474216       0.00000000
Si       2.51825481      -1.05423993       2.41570627       0.00000000
Si      -2.47908062       0.04347801      -2.87082490       0.00000000
Si      -2.47224208       2.88235260      -0.08165535       0.00000000
Si       0.25889697      -2.66574447      -2.89708108       0.00000000
Si      -0.23508099       2.18007441       3.32484378       0.00000000
Si       0.26150337       2.74530483      -2.88628993       0.00000000
