10
Lattice="16.28999089631971 0.0 0.0 0.0 16.28999089631971 0.0 0.0 0.0 34.36671206372826" Properties=species:S:1:pos:R:3:initial_magmoms:R:1 pbc="T T T"
Si       2.00459527       0.47899116       1.11303533       0.00000000
Si      -0.30349736       2.09533383      -1.11090459       0.00000000
Si      -1.21882757      -0.43546428       2.05873904       0.00000000
Si      -0.30506935      -1.62755019      -1.78294602       0.00000000
Si      -2.00980548      -2.64637566       1.60076798       0.00000000
Si      -2.55519468      -0.97073739      -2.48646737       0.00000000
Si      -1.38833822       1.40848227      -3.14249391       0.00000000
Si       1.40515585       1.75112613       3.00313681       0.00000000
Si       1.91343643       2.61649980      -1.92161578       0.00000000
Si       3.44746573       1.65483594      -0.29101748       0.00000000
