10
Lattice="16.28999089631971 0.0 0.0 0.0 16.28999089631971 0.0 0.0 0.0 34.36671206372826" Properties=species:S:1:pos:R:3:initial_magmoms:R:1 pbc="T T T"
Si      -1.59899449       1.65006297       0.66630219       0.00000000
Si      -0.79097791      -2.21091138      -0.45797106       0.00000000
Si       1.21882757       0.43546428      -2.05873904       0.00000000
Si       1.49089990       0.24475725       1.93587797       0.00000000
Si       3.22342285       0.91445544      -0.94570371       0.00000000
Si       2.62398343       2.18659041       0.94439778       0.00000000
Si       1.20356873      -3.34759500      -1.22146236       0.00000000
Si       2.28120925      -1.97615619       2.28555946       0.00000000
Si      -1.68686275       1.84318092       3.00959776       0.00000000
Si      -0.89277412       3.82727034       0.20791872       0.00000000
