10
Lattice="16.28999089631971 0.0 0.0 0.0 16.28999089631971 0.0 0.0 0.0 34.36671206372826" Properties=species:S:1:pos:R:3:initial_magmoms:R:1 pbc="T T T"
Si       0.54203346       2.18496141      -0.65382706       0.00000000
Si       1.82576691      -1.32172173      -0.76799334       0.00000000
Si      -2.42708945      -0.08443107       0.85133267       0.00000000
Si       0.02120958      -2.74274730      -1.06399400       0.00000000
Si      -1.28164833      -1.67770710      -2.73531688       0.00000000
Si      -1.70841375       2.96851041      -0.47470766       0.00000000
Si      -3.19932668       1.22973210      -1.11537226       0.00000000
Si      -1.29717270      -3.28258161       0.88040692       0.00000000
Si       2.07638856      -0.43148952      -3.04344899       0.00000000
Si       2.10973419       1.87651026      -2.43856015       0.00000000
