10
Lattice="16.28999089631971 0.0 0.0 0.0 16.28999089631971 0.0 0.0 0.0 34.36671206372826" Properties=species:S:1:pos:R:3:initial_magmoms:R:1 pbc="T T T"
Si      -1.35753073      -1.35679972      -1.35762335       0.00000000
Si       1.35758905      -1.35727101       1.35796702       0.00000000
Si      -1.35733828       1.35824717       1.35765772       0.00000000
Si       1.35757276       1.35953408      -1.35748589       0.00000000
Si      -2.71491813       0.00023458       2.71376893       0.00000000
Si       2.71378042      -0.00015638       2.71497177       0.00000000
Si       2.71462750      -2.71443921      -0.00024057       0.00000000
Si      -2.71498329      -2.71458582       0.00041240       0.00000000
Si      -0.00140908       2.71921151      -2.71046973       0.00000000
Si      -0.00064020      -2.71474872       2.71517797       0.00000000
