10
Lattice="10.86 0.0 0.0 0.0 10.86 0.0 0.0 0.0 10.86" Properties=species:S:1:pos:R:3:initial_magmoms:R:1 pbc="T T T"
Si      -1.20534054       1.15448316       1.59849426       0.00000000
Si      -1.31839314      -1.57370088      -1.12523718       0.00000000
Si       1.45005978      -1.49972256       1.49068704       0.00000000
Si       0.16949202       2.55204570      -2.52024762       0.00000000
Si      -2.58066180       2.54160924       0.16508286       0.00000000
Si      -2.58066180      -0.17339076      -2.54991714       0.00000000
Si       0.13433820       2.54160924       2.88008286       0.00000000
Si       0.13433820      -2.88839076      -2.54991714       0.00000000
Si      -2.58066180      -0.17339076       2.88008286       0.00000000
Si      -2.58066180      -2.88839076       0.16508286       0.00000000
