10
Lattice="10.86 0.0 0.0 0.0 10.86 0.0 0.0 0.0 10.86" Properties=species:S:1:pos:R:3:initial_magmoms:R:1 pbc="T T T"
Si      -1.20213684      -1.22157624       1.23454308       0.00000000
Si       1.51286316      -1.22157624      -1.48045692       0.00000000
Si       1.51286316       1.49342376       1.23454308       0.00000000
Si      -2.55963684      -2.57907624      -0.12295692       0.00000000
Si      -2.60141526       0.16709196       2.56014726       0.00000000
Si       0.15536316      -2.57907624       2.59204308       0.00000000
Si       0.15536316      -2.57907624      -2.83795692       0.00000000
Si       2.87036316      -2.57907624      -0.12295692       0.00000000
Si      -0.13261146       2.83568718      -2.62056144       0.00000000
Si       2.87036316       0.13592376       2.59204308       0.00000000
