10
Lattice="10.86 0.0 0.0 0.0 10.86 0.0 0.0 0.0 10.86" Properties=species:S:1:pos:R:3:initial_magmoms:R:1 pbc="T T T"
Si       1.31968548       1.16387706      -1.30015920       0.00000000
Si      -1.30552404       1.06221660       1.45666266       0.00000000
Si      -1.33436820      -1.39435884      -1.21004292       0.00000000
Si      -0.16949202      -2.55204570       2.52024762       0.00000000
Si       2.67984618       2.70456354      -0.02966952       0.00000000
Si      -0.03515382       2.70456354       2.68533048       0.00000000
Si       2.67984618      -0.01043646      -2.74466952       0.00000000
Si      -2.75015382      -0.01043646       2.68533048       0.00000000
Si      -0.03515382       2.70456354      -2.74466952       0.00000000
Si      -2.75015382       2.70456354      -0.02966952       0.00000000
