10
Lattice="10.86 0.0 0.0 0.0 10.86 0.0 0.0 0.0 10.86" Properties=species:S:1:pos:R:3:initial_magmoms:R:1 pbc="T T T"
Si      -0.98467620      -1.16922018       1.50374076       0.00000000
Si      -0.98467620       1.54577982      -1.21125924       0.00000000
Si       1.36936998       0.78083400       1.68044382       0.00000000
Si       1.73032380      -1.16922018      -1.21125924       0.00000000
Si      -2.34217620      -2.52672018       0.14624076       0.00000000
Si      -2.34217620       0.18827982      -2.56875924       0.00000000
Si       0.37282380      -2.52672018      -2.56875924       0.00000000
Si      -2.34217620       0.18827982       2.86124076       0.00000000
Si      -2.34217620       2.90327982       0.14624076       0.00000000
Si       0.38741964      -2.49642078       2.77506666       0.00000000
