10
Lattice="10.86 0.0 0.0 0.0 10.86 0.0 0.0 0.0 10.86" Properties=species:S:1:pos:R:3:initial_magmoms:R:1 pbc="T T T"
Si       1.29467490       1.39788834       1.28043744       0.00000000
Si       1.29467490      -1.31711166      -1.43456256       0.00000000
Si      -1.42032510       1.39788834      -1.43456256       0.00000000
Si       0.13752018      -2.60965800       2.63378892       0.00000000
Si       2.65217490       0.04038834       2.63793744       0.00000000
Si       2.65217490      -2.67461166      -0.07706256       0.00000000
Si      -0.15640572       2.73766482       2.65475958       0.00000000
Si       2.65217490       2.75538834      -0.07706256       0.00000000
Si       2.65217490       0.04038834      -2.79206256       0.00000000
Si      -3.02518332       2.39504268       0.24450204       0.00000000
