10
Lattice="10.86 0.0 0.0 0.0 10.86 0.0 0.0 0.0 10.86" Properties=species:S:1:pos:R:3:initial_magmoms:R:1 pbc="T T T"
Si      -1.21933908      -1.27397574       1.31979408       0.00000000
Si      -1.21933908       1.44102426      -1.39520592       0.00000000
Si       1.49566092      -1.27397574      -1.39520592       0.00000000
Si      -2.56224324       0.11382366       2.59111998       0.00000000
Si      -2.57683908      -2.63147574      -0.03770592       0.00000000
Si       0.13816092      -2.63147574       2.67729408       0.00000000
Si      -2.57683908       0.08352426      -2.75270592       0.00000000
Si       0.13816092      -2.63147574      -2.75270592       0.00000000
Si       2.85316092      -2.63147574      -0.03770592       0.00000000
Si       0.13816092       2.79852426      -2.75270592       0.00000000
