10
Lattice="16.28999089631971 0.0 0.0 0.0 16.28999089631971 0.0 0.0 0.0 34.450931932916035" Properties=species:S:1:pos:R:3:initial_magmoms:R:1 pbc="T T T"
Si       1.35659862      -1.35498754      -1.35815985       0.00000000
Si      -1.35714108       1.35650088      -1.35867661       0.00000000
Si      -1.36790062      -1.35142003       1.36604912       0.00000000
Si       1.35501849       1.37441988       1.37018323       0.00000000
Si       2.70909216       2.71401174      -0.00124023       0.00000000
Si      -2.71666824      -2.71080980       0.00017225       0.00000000
Si       2.71295289      -2.71537356       0.00296278       0.00000000
Si       2.71381626       0.00057015      -2.71538952       0.00000000
Si      -2.71449099       2.71490769       0.00726915       0.00000000
Si      -0.00053757      -2.71465950      -2.71545842       0.00000000
