10
Lattice="16.28999089631971 0.0 0.0 0.0 16.28999089631971 0.0 0.0 0.0 34.450931932916035" Properties=species:S:1:pos:R:3:initial_magmoms:R:1 pbc="T T T"
Si      -1.42545645       1.23259914      -1.38789102       0.00000000
Si       1.30873860      -1.48963579      -1.37211248       0.00000000
Si      -1.87253550      -1.02903930       1.21026192       0.00000000
Si       1.11803157       1.70802279       1.46103039       0.00000000
Si       0.94990248      -0.21436011       3.09727832       0.00000000
Si      -0.44424459      -2.23961273       2.67105115       0.00000000
Si      -2.66408289       2.55658518       0.25765866       0.00000000
Si      -0.07138278       2.57219100      -2.75931448       0.00000000
Si       2.64580551      -0.14291217      -2.75755749       0.00000000
Si       2.78883171       2.72100015       0.00172255       0.00000000
