10
Lattice="16.28999089631971 0.0 0.0 0.0 16.28999089631971 0.0 0.0 0.0 34.450931932916035" Properties=species:S:1:pos:R:3:initial_magmoms:R:1 pbc="T T T"
Si       1.08292662       1.88659377      -1.02305545       0.00000000
Si       1.45109691      -1.01944449       1.64892588       0.00000000
Si      -0.54289683      -2.00612979      -1.28891344       0.00000000
Si      -2.07497133       1.11770577       0.68671081       0.00000000
Si      -3.47183883      -0.75469941       0.32773190       0.00000000
Si      -0.66885111      -3.57969003       0.48686084       0.00000000
Si      -2.55334347       2.53540818      -1.21229452       0.00000000
Si      -2.85478992      -1.90363311      -1.64089880       0.00000000
Si       1.20093138       0.31708485       3.61741878       0.00000000
Si       1.81965816       1.29883428      -3.19601474       0.00000000
