10
Lattice="16.28999089631971 0.0 0.0 0.0 16.28999089631971 0.0 0.0 0.0 34.450931932916035" Properties=species:S:1:pos:R:3:initial_magmoms:R:1 pbc="T T T"
Si      -0.51684912      -2.25860524       0.56592578       0.00000000
Si      -0.25016553       1.33652934       1.96849290       0.00000000
Si       2.17489419      -0.42008652      -0.92152849       0.00000000
Si      -1.45109691       1.01944449      -1.64892588       0.00000000
Si      -2.11994802      -2.56024554      -1.16206503       0.00000000
Si      -1.99399374      -0.98668530      -2.93783931       0.00000000
Si       3.52515600       1.29163410       0.08337130       0.00000000
Si       0.04898403       3.60908208       1.18569839       0.00000000
Si      -2.56702707       1.24623387       2.61141655       0.00000000
Si      -1.83783780      -2.41950320       2.46317411       0.00000000
