10
Lattice="16.28999089631971 0.0 0.0 0.0 16.28999089631971 0.0 0.0 0.0 34.450931932916035" Properties=species:S:1:pos:R:3:initial_magmoms:R:1 pbc="T T T"
Si       1.42829091      -1.21057343       1.46078923       0.00000000
Si      -0.96031179      -1.82750084      -1.21615303       0.00000000
Si       1.87253550       1.02903930      -1.21026192       0.00000000
Si      -1.78404822       1.77989427       0.42543480       0.00000000
Si       0.44707905       2.26163844      -2.59815293       0.00000000
Si      -2.27584006      -0.46420147      -2.60228705       0.00000000
Si       2.82243798       0.81467919       1.88701640       0.00000000
Si       0.74862324       1.56817314       3.28524271       0.00000000
Si      -0.79154739       3.58562448      -0.95260325       0.00000000
Si       0.67680063      -0.74248680       3.70368396       0.00000000
