10
Lattice="16.28999089631971 0.0 0.0 0.0 16.28999089631971 0.0 0.0 0.0 34.450931932916035" Properties=species:S:1:pos:R:3:initial_magmoms:R:1 pbc="T T T"
Si      -0.47629028       2.29100931       0.02432237       0.00000000
Si       2.33171802      -0.48096225       0.36776390       0.00000000
Si      -0.20095344      -0.26924112      -2.49204400       0.00000000
Si      -0.53605666      -1.18053630       2.23300730       0.00000000
Si       2.25989541      -2.79162219       0.78620516       0.00000000
Si       0.17769132      -3.39561303       1.72216860       0.00000000
Si       3.01192326       0.44747001       2.41380589       0.00000000
Si       1.58309478      -2.04913539      -2.91747880       0.00000000
Si       1.24719498      -0.51421014       3.71887683       0.00000000
Si       0.48441573       3.35334537       2.10843266       0.00000000
