10
Lattice="16.28999089631971 0.0 0.0 0.0 16.28999089631971 0.0 0.0 0.0 34.450931932916035" Properties=species:S:1:pos:R:3:initial_magmoms:R:1 pbc="T T T"
Si      -1.40414913       1.26511398       1.33332416       0.00000000
Si       1.31077485      -1.48436109       1.29310612       0.00000000
Si      -1.83708846      -0.87304626      -1.22242207       0.00000000
Si       1.65964149       0.95363289      -1.42647750       0.00000000
Si      -0.04383639       2.60263701       2.66968689       0.00000000
Si       2.69029350       2.61190602      -0.00913639       0.00000000
Si      -2.78607870       2.52651384      -0.04156163       0.00000000
Si       2.67582798      -0.11487708       2.66476040       0.00000000
Si      -2.75682186      -0.11458386       2.66252109       0.00000000
Si      -2.72720664      -2.74395276      -0.10634664       0.00000000
