10
Lattice="16.28999089631971 0.0 0.0 0.0 16.28999089631971 0.0 0.0 0.0 34.450931932916035" Properties=species:S:1:pos:R:3:initial_magmoms:R:1 pbc="T T T"
Si       1.35140211      -1.35917244       1.35719522       0.00000000
Si       1.35661491       1.35700587      -1.35716077       0.00000000
Si      -1.35816246      -1.35796698      -1.35671291       0.00000000
Si      -1.35835794       1.35795069       1.36177720       0.00000000
Si      -0.00267156      -2.69876430       2.72861869       0.00000000
Si       2.71402803      -0.00042354      -2.71459715       0.00000000
Si      -0.00060273       2.71497285      -2.71408039       0.00000000
Si       2.71518462      -2.71469592       0.00027561       0.00000000
Si      -0.00122175      -2.71572219      -2.71435599       0.00000000
Si      -2.71576454       2.71440270      -0.00024116       0.00000000
