10
Lattice="16.28999089631971 0.0 0.0 0.0 16.28999089631971 0.0 0.0 0.0 34.450931932916035" Properties=species:S:1:pos:R:3:initial_magmoms:R:1 pbc="T T T"
Si      -0.80138655       2.19447477       0.64822910       0.00000000
Si      -0.53716275      -0.74824857       2.28857669       0.00000000
Si       2.43514323      -0.37919862       0.38926130       0.00000000
Si      -0.56759247      -1.01483442      -2.29660376       0.00000000
Si      -2.84980518      -0.18477747       2.30373511       0.00000000
Si       0.92921418       2.48795541      -2.59853190       0.00000000
Si       1.01683809       0.66539763       3.53408193       0.00000000
Si       2.90483280      -2.50290963      -0.55889778       0.00000000
Si       0.09065385       0.72611046      -3.89616142       0.00000000
Si       1.23944094      -2.85019614      -2.47140789       0.00000000
