10
Lattice="16.28999089631971 0.0 0.0 0.0 16.28999089631971 0.0 0.0 0.0 34.450931932916035" Properties=species:S:1:pos:R:3:initial_magmoms:R:1 pbc="T T T"
Si      -1.35550719       1.35632169      -1.36318969       0.00000000
Si       1.36270737      -1.35879777      -1.36219061       0.00000000
Si       1.36383138       1.37596743       1.35871106       0.00000000
Si      -1.36896273      -1.36630746       1.38454928       0.00000000
Si       2.64093480      -0.02375082       2.75642060       0.00000000
Si      -2.71453302       2.71099809      -0.00499539       0.00000000
Si       2.71560816       2.71318095      -0.00778591       0.00000000
Si      -2.71262709      -2.71617831      -0.00130914       0.00000000
Si      -2.71288773      -0.00210141      -2.71993705       0.00000000
Si       0.00213399       2.71265967      -2.72017820       0.00000000
