10
Lattice="16.28999089631971 0.0 0.0 0.0 16.28999089631971 0.0 0.0 0.0 34.450931932916035" Properties=species:S:1:pos:R:3:initial_magmoms:R:1 pbc="T T T"
Si      -1.07722512       0.81665028       1.90041782       0.00000000
Si      -1.00214451       0.88708824      -1.97941385       0.00000000
Si       2.35734219       0.44922933      -0.06376871       0.00000000
Si      -0.57829500      -2.35680462       0.05560384       0.00000000
Si      -3.23643204      -0.03857472       1.17088448       0.00000000
Si      -0.34590186      -0.89977815       3.54062761       0.00000000
Si       1.42969185      -3.31294617      -0.70558993       0.00000000
Si       3.20372172      -1.72463859      -0.61005744       0.00000000
Si       2.53291581       2.07001917      -1.74132333       0.00000000
Si      -2.39651964      -0.82772748      -2.83024899       0.00000000
