10
Lattice="16.28999089631971 0.0 0.0 0.0 16.28999089631971 0.0 0.0 0.0 34.450931932916035" Properties=species:S:1:pos:R:3:initial_magmoms:R:1 pbc="T T T"
Si       1.07722512      -0.81665028      -1.90041782       0.00000000
Si      -2.15920692      -0.85522500      -0.72953334       0.00000000
Si       0.73132326      -1.71642843       1.64020979       0.00000000
Si       0.21080889       2.47990815      -0.02835313       0.00000000
Si       0.49893012      -3.17345490      -1.84481399       0.00000000
Si       0.29540286      -3.76067682       0.42908660       0.00000000
Si       0.07508061       0.07043796      -3.87983167       0.00000000
Si      -0.63128637       3.20891823       2.09895865       0.00000000
Si      -2.78348859      -2.61661383       0.76022914       0.00000000
Si      -3.89581866       0.67339602      -0.17149684       0.00000000
