10
Lattice="16.28999089631971 0.0 0.0 0.0 16.28999089631971 0.0 0.0 0.0 34.450931932916035" Properties=species:S:1:pos:R:3:initial_magmoms:R:1 pbc="T T T"
Si      -0.20440692       2.02518909       1.16602689       0.00000000
Si      -2.23327755      -0.31167657      -0.73766377       0.00000000
Si       1.11720078       0.27352539      -2.14181564       0.00000000
Si       0.61392123      -1.68678063       1.65006276       0.00000000
Si       3.42148644       0.16073343      -1.46357976       0.00000000
Si      -0.94498290      -3.36553029       1.30011000       0.00000000
Si       1.19663082       1.83394449       3.03926291       0.00000000
Si      -2.48903055       2.04864669       1.91853902       0.00000000
Si       0.68128038      -1.77072300      -3.35293882       0.00000000
Si      -3.51342720       1.59860286      -0.14800129       0.00000000
