10
Lattice="16.28999089631971 0.0 0.0 0.0 16.28999089631971 0.0 0.0 0.0 34.450931932916035" Properties=species:S:1:pos:R:3:initial_magmoms:R:1 pbc="T T T"
Si       0.25542720      -0.82788453      -2.18622291       0.00000000
Si      -2.19628948       0.47866373       0.75213317       0.00000000
Si       0.41433615      -1.65499299       1.69016367       0.00000000
Si       1.29857364       2.00871664      -0.22148517       0.00000000
Si      -0.01700676      -0.23409774       3.58885894       0.00000000
Si       2.75165793      -1.88220591       1.40490979       0.00000000
Si       0.68152473       3.15765034       1.74714554       0.00000000
Si       1.60533063       1.38178622       3.01814448       0.00000000
Si      -2.76161831       2.52587527      -0.20467310       0.00000000
Si      -1.00248008      -2.73309777      -2.41783666       0.00000000
