10
Lattice="16.28999089631971 0.0 0.0 0.0 16.28999089631971 0.0 0.0 0.0 34.450931932916035" Properties=species:S:1:pos:R:3:initial_magmoms:R:1 pbc="T T T"
Si      -1.45995867       1.22016987      -1.40473753       0.00000000
Si       1.26788328      -1.47246939      -1.41028414       0.00000000
Si       1.04381433       1.68311538       1.37769354       0.00000000
Si      -0.72699012      -1.88968887       1.39219739       0.00000000
Si       0.17011647      -0.98104896       3.53887061       0.00000000
Si      -0.09495441       2.57886733      -2.77068330       0.00000000
Si       2.61966006      -0.13525587      -2.77678112       0.00000000
Si       2.54498670      -2.87218764      -0.01257460       0.00000000
Si       1.93328091       0.57474378       3.26946417       0.00000000
Si      -2.86027965       2.57952150      -0.02146294       0.00000000
