10
Lattice="16.28999089631971 0.0 0.0 0.0 16.28999089631971 0.0 0.0 0.0 34.450931932916035" Properties=species:S:1:pos:R:3:initial_magmoms:R:1 pbc="T T T"
Si       1.24836786      -0.49125753      -1.92749627       0.00000000
Si      -2.37376251      -0.14603985      -0.14555527       0.00000000
Si       0.46255455       1.41390684       1.88222772       0.00000000
Si       1.52239824      -1.89662841      -0.05043619       0.00000000
Si      -2.93810675       0.39096000       2.10560769       0.00000000
Si      -1.68019947       2.29617324       2.33722143       0.00000000
Si       1.51215183       3.28072196       0.88483823       0.00000000
Si       0.12802311      -3.61144413      -0.90127133       0.00000000
Si       3.01153230       1.06453521      -2.19690271       0.00000000
Si      -3.19738165       1.85802111      -1.34537855       0.00000000
