10
Lattice="16.28999089631971 0.0 0.0 0.0 16.28999089631971 0.0 0.0 0.0 34.450931932916035" Properties=species:S:1:pos:R:3:initial_magmoms:R:1 pbc="T T T"
Si      -1.92709234       0.90782541      -0.97699452       0.00000000
Si       0.61704891      -1.14893370      -1.96863070       0.00000000
Si       1.39686750       1.87240518       0.35897891       0.00000000
Si       0.92380590      -1.77586412       1.27099894       0.00000000
Si      -0.69822198       1.96359660      -2.67301485       0.00000000
Si      -2.63712457      -1.99871132       1.29607923       0.00000000
Si       3.47183883       0.75469941      -0.32773190       0.00000000
Si       2.92894200      -1.25143038      -1.61664534       0.00000000
Si      -0.68152473      -3.15765034      -1.74714554       0.00000000
Si      -2.86371521       2.28118644       0.66938198       0.00000000
