10
Lattice="16.28999089631971 0.0 0.0 0.0 16.28999089631971 0.0 0.0 0.0 34.450931932916035" Properties=species:S:1:pos:R:3:initial_magmoms:R:1 pbc="T T T"
Si       0.67396617      -0.26216474      -2.16131974       0.00000000
Si       1.91343969       0.82700909       1.08035427       0.00000000
Si      -0.91984743      -1.96391818       1.02006855       0.00000000
Si      -1.88882550       1.62963042      -0.18545946       0.00000000
Si       0.49612824       2.12315226       2.46214402       0.00000000
Si      -2.23070373      -0.63631298       2.47788466       0.00000000
Si      -0.89000415       3.46764741       0.94989885       0.00000000
Si      -3.62304261       0.67114311       1.13235109       0.00000000
Si       1.41677388      -2.45252044      -2.70633378       0.00000000
Si      -0.86411934       0.74407670       3.82768327       0.00000000
