10
Lattice="16.28999089631971 0.0 0.0 0.0 16.28999089631971 0.0 0.0 0.0 34.450931932916035" Properties=species:S:1:pos:R:3:initial_magmoms:R:1 pbc="T T T"
Si      -1.35795069      -1.35678448       1.35740193       0.00000000
Si       1.35718506       1.35846597       1.35764308       0.00000000
Si       1.35715248      -1.35699625      -1.35964124       0.00000000
Si      -1.35769005       1.35932282      -1.36460218       0.00000000
Si      -0.00035838      -2.71405099       2.71463160       0.00000000
Si       2.71533123      -2.71369261      -0.00003445       0.00000000
Si       2.71479366       0.00069649       2.71483831       0.00000000
Si      -2.71494027       0.00073770       2.71494166       0.00000000
Si      -2.71608057      -2.71390438      -0.00048231       0.00000000
Si       0.00004887       2.71528288       2.71483831       0.00000000
