10
Lattice="16.28999089631971 0.0 0.0 0.0 16.28999089631971 0.0 0.0 0.0 34.450931932916035" Properties=species:S:1:pos:R:3:initial_magmoms:R:1 pbc="T T T"
Si      -2.17489419       0.42008652       0.92152849       0.00000000
Si       1.35026181       1.71172062       1.00489980       0.00000000
Si       0.21253563      -0.27528471      -2.38965578       0.00000000
Si       0.77359581      -2.19964033       0.65064066       0.00000000
Si       3.39538986       0.60572736       0.62194302       0.00000000
Si       2.75603994      -1.39314523       1.74614646       0.00000000
Si      -2.69174331      -1.83851872       1.48745427       0.00000000
Si       0.90601722       3.67044651      -0.27591767       0.00000000
Si       2.36949453      -1.19198165      -2.84502845       0.00000000
Si      -3.62599110       1.43953101      -0.72739738       0.00000000
