10
Lattice="16.28999089631971 0.0 0.0 0.0 16.28999089631971 0.0 0.0 0.0 34.450931932916035" Properties=species:S:1:pos:R:3:initial_magmoms:R:1 pbc="T T T"
Si       0.80145171      -2.16469406       0.36397430       0.00000000
Si       0.90859104       2.09830838       0.51517952       0.00000000
Si       0.86157810      -0.10280456      -2.20696238       0.00000000
Si      -2.19170547       0.15652572       1.00472754       0.00000000
Si      -1.14305301      -0.88496565       2.80354951       0.00000000
Si      -1.10478780      -3.17859995      -0.65856438       0.00000000
Si      -0.79794936       3.34951070      -0.57550314       0.00000000
Si       3.08201913      -0.78335189      -1.52686616       0.00000000
Si      -1.12086603      -0.90929965      -3.30246818       0.00000000
Si      -2.67646329       2.44797323       0.55514263       0.00000000
