10
Lattice="16.28999089631971 0.0 0.0 0.0 16.28999089631971 0.0 0.0 0.0 34.450931932916035" Properties=species:S:1:pos:R:3:initial_magmoms:R:1 pbc="T T T"
Si      -1.57855543      -0.75981284       1.52982894       0.00000000
Si      -0.24068964      -0.68027529      -2.29109161       0.00000000
Si       1.93859308      -1.39303676       0.54563416       0.00000000
Si      -0.92373001       2.30587556       0.50250157       0.00000000
Si      -0.52298654       0.46880339       3.35138853       0.00000000
Si       2.63712457       1.99871132      -1.29607923       0.00000000
Si       3.56093047       0.22284720      -0.02508029       0.00000000
Si      -0.80601847       1.36693625      -3.24789787       0.00000000
Si      -3.15964654       1.91960708      -0.27447073       0.00000000
Si       0.71003223       2.90653673      -2.27307376       0.00000000
