10
Lattice="16.28999089631971 0.0 0.0 0.0 16.28999089631971 0.0 0.0 0.0 34.450931932916035" Properties=species:S:1:pos:R:3:initial_magmoms:R:1 pbc="T T T"
Si       1.87851393       0.90153747      -1.13064577       0.00000000
Si      -1.64305827       0.59898330      -1.61823008       0.00000000
Si       0.48475782      -2.29144751       0.44958491       0.00000000
Si      -0.25620912       1.55681901       1.80898500       0.00000000
Si       1.94222412       2.33396604       1.73209047       0.00000000
Si       3.58505433      -0.34966485      -0.03996310       0.00000000
Si       2.67646329      -2.44797323      -0.55514263       0.00000000
Si      -1.70624718      -3.23075009       0.67182800       0.00000000
Si       1.87465320       3.20847840      -0.57643332       0.00000000
Si      -1.39289274      -0.73754604      -3.58672298       0.00000000
