10
Lattice="16.28999089631971 0.0 0.0 0.0 16.28999089631971 0.0 0.0 0.0 34.450931932916035" Properties=species:S:1:pos:R:3:initial_magmoms:R:1 pbc="T T T"
Si       1.22195851       1.29973186       1.54608087       0.00000000
Si       1.32737110      -1.12756678      -1.60283050       0.00000000
Si      -1.42990103      -1.40822719       1.45712851       0.00000000
Si      -0.65703827       1.76254705      -1.67583207       0.00000000
Si       1.08736564       3.31227991      -1.01299577       0.00000000
Si      -2.67745439       2.59905484      -0.07816921       0.00000000
Si       2.85828575       2.42932933       0.27375867       0.00000000
Si       2.74034615      -2.57729533      -0.33586232       0.00000000
Si       2.54253668      -0.06723158       2.90912931       0.00000000
Si      -0.16224581       2.64065950       2.91801076       0.00000000
