10
Lattice="16.28999089631971 0.0 0.0 0.0 16.28999089631971 0.0 0.0 0.0 34.450931932916035" Properties=species:S:1:pos:R:3:initial_magmoms:R:1 pbc="T T T"
Si       1.77092011      -0.88295058       1.28675444       0.00000000
Si       1.41597730       0.48596328      -1.87044549       0.00000000
Si      -1.14412815       1.71102015       1.24100681       0.00000000
Si      -1.74440392      -1.54973286      -0.66283630       0.00000000
Si       0.13459287      -2.01254805       2.55907664       0.00000000
Si      -2.65622038       2.39391324      -0.36163163       0.00000000
Si       0.43318531       2.53622268      -2.52360108       0.00000000
Si      -1.08736564      -3.31227991       1.01299577       0.00000000
Si       1.21961764      -1.45344267      -3.17989170       0.00000000
Si      -2.65239223       0.55718316       2.55390211       0.00000000
