10
Lattice="16.28999089631971 0.0 0.0 0.0 16.28999089631971 0.0 0.0 0.0 34.450931932916035" Properties=species:S:1:pos:R:3:initial_magmoms:R:1 pbc="T T T"
Si      -1.76785596       0.83399913      -1.19980382       0.00000000
Si      -1.45156932      -1.17877698       1.37767307       0.00000000
Si       1.26731313       1.51584966       1.29796735       0.00000000
Si       1.42358310       0.10945251      -3.21408203       0.00000000
Si      -0.89886591       0.54087687      -3.35974065       0.00000000
Si      -0.09712098      -2.54282013       2.69014752       0.00000000
Si       2.60532486       0.14652855       2.68390500       0.00000000
Si      -3.50028117      -0.78993468      -1.07836421       0.00000000
Si      -2.48222133      -2.83705011      -0.03966804       0.00000000
Si       2.38604517       1.99800108      -2.16002073       0.00000000
