10
Lattice="16.28999089631971 0.0 0.0 0.0 16.28999089631971 0.0 0.0 0.0 34.450931932916035" Properties=species:S:1:pos:R:3:initial_magmoms:R:1 pbc="T T T"
Si      -0.30086001       1.06893351       2.00111795       0.00000000
Si      -1.58272011      -1.10846934      -1.34007310       0.00000000
Si       1.19389410       1.63185075      -1.25780423       0.00000000
Si       0.89378343      -2.08567386       1.03814496       0.00000000
Si      -0.14903721      -2.44571544      -2.71948918       0.00000000
Si       2.57020362       0.27158688      -2.71159992       0.00000000
Si      -2.19442590       2.33846208       1.94196567       0.00000000
Si      -3.34733436      -2.04403662      -0.00916395       0.00000000
Si      -2.85982353       0.29124891      -2.73778264       0.00000000
Si      -0.15540660       2.98172160      -2.71911022       0.00000000
