10
Lattice="16.28999089631971 0.0 0.0 0.0 16.28999089631971 0.0 0.0 0.0 34.450931932916035" Properties=species:S:1:pos:R:3:initial_magmoms:R:1 pbc="T T T"
Si      -0.24159699       1.29606498      -1.98558057       0.00000000
Si       2.23893018       1.04537817      -0.43353077       0.00000000
Si      -0.61307415       0.14731047       2.43406305       0.00000000
Si       2.16081963      -1.86329907      -0.80208705       0.00000000
Si      -0.26420751      -2.08316520      -2.59515570       0.00000000
Si      -2.97678573      -1.52945181      -0.04509630       0.00000000
Si       2.08121040       0.44742114      -2.82149845       0.00000000
Si      -2.38710402      -1.44099711       2.33853057       0.00000000
Si      -1.45945368       2.32117839       2.98035179       0.00000000
Si       2.40393159       3.43101609      -0.71516730       0.00000000
