10
Lattice="16.28999089631971 0.0 0.0 0.0 16.28999089631971 0.0 0.0 0.0 34.450931932916035" Properties=species:S:1:pos:R:3:initial_magmoms:R:1 pbc="T T T"
Si       1.68485841       0.82911213      -1.48080523       0.00000000
Si      -0.93646323      -1.85086980      -1.33431979       0.00000000
Si      -1.77616386       1.77795154       0.26368758       0.00000000
Si       2.11778145       0.89659999       1.49827187       0.00000000
Si       0.47172582       2.63859623       1.85714743       0.00000000
Si       0.42454998       2.24173273      -2.82149845       0.00000000
Si      -2.28576393      -0.50099895      -2.79562579       0.00000000
Si      -3.48171057       0.98875236      -1.30513983       0.00000000
Si      -0.92506023       3.51160991      -1.29160061       0.00000000
Si      -0.34165017      -2.09732121       3.27087666       0.00000000
