10
Lattice="16.28999089631971 0.0 0.0 0.0 16.28999089631971 0.0 0.0 0.0 34.450931932916035" Properties=species:S:1:pos:R:3:initial_magmoms:R:1 pbc="T T T"
Si      -0.03847698       1.34457660      -1.90169251       0.00000000
Si       1.95616836      -0.82647315      -1.00200592       0.00000000
Si       0.75934206       1.79590734       1.45775755       0.00000000
Si      -1.70743635      -1.56880845       0.78627406       0.00000000
Si      -2.60609049       0.08068437       2.27290150       0.00000000
Si      -0.67364037       1.19461086       3.18464593       0.00000000
Si       2.20488408      -2.70210375       0.25593612       0.00000000
Si       3.42034614       0.81502128      -0.22772079       0.00000000
Si       2.19662505       2.28314124      -1.63893510       0.00000000
Si      -3.18992409       1.10486925      -1.73980749       0.00000000
