10
Lattice="16.28999089631971 0.0 0.0 0.0 16.28999089631971 0.0 0.0 0.0 34.450931932916035" Properties=species:S:1:pos:R:3:initial_magmoms:R:1 pbc="T T T"
Si       1.04620896      -1.97337060      -0.83398863       0.00000000
Si      -0.33430338       0.94208328      -2.24558190       0.00000000
Si      -1.41245703      -1.22649039       1.67187163       0.00000000
Si       1.28871819       1.44246321       1.60429264       0.00000000
Si       1.67167980       0.01844028      -3.24531405       0.00000000
Si      -0.68621625      -3.59730441      -0.71254902       0.00000000
Si      -2.64235203      -2.78731674       0.43192918       0.00000000
Si       2.81406492      -2.80736973       0.36581519       0.00000000
Si      -0.02728575      -2.62482399       3.05448476       0.00000000
Si      -1.97930016      -0.24145038      -3.52567589       0.00000000
