10
Lattice="16.28999089631971 0.0 0.0 0.0 16.28999089631971 0.0 0.0 0.0 34.450931932916035" Properties=species:S:1:pos:R:3:initial_magmoms:R:1 pbc="T T T"
Si       1.35744570       1.35620075       1.35650620       0.00000000
Si      -1.35692442      -1.35762758       1.35753973       0.00000000
Si       1.35819504      -1.35736694      -1.35688516       0.00000000
Si      -1.35760860       1.35776948      -1.35719522       0.00000000
Si       0.00053757      -2.71438910      -2.71487276       0.00000000
Si      -2.71474479       2.71458639       0.00000000       0.00000000
Si       2.71493639       2.71461897       0.00048231       0.00000000
Si      -2.71479366      -0.00069649      -2.71483831       0.00000000
Si       2.71413172       0.00403723       2.71573403       0.00000000
Si      -2.71515204      -2.71474748      -0.00020671       0.00000000
