10
Lattice="16.28999089631971 0.0 0.0 0.0 16.28999089631971 0.0 0.0 0.0 34.450931932916035" Properties=species:S:1:pos:R:3:initial_magmoms:R:1 pbc="T T T"
Si      -1.36959804      -1.33331044       1.35430134       0.00000000
Si       1.35651717      -1.35845079      -1.36091592       0.00000000
Si      -1.35803214       1.35835794      -1.35964124       0.00000000
Si       1.36107837       1.35426915       1.39374768       0.00000000
Si       2.71320319      -2.71061432      -0.00168810       0.00000000
Si      -2.71389771       2.71565703      -0.00044786       0.00000000
Si       2.71538045       2.71510317       0.00540880       0.00000000
Si       2.71400786      -0.00003258      -2.71693981       0.00000000
Si      -0.00092853      -2.71465155      -2.71742213       0.00000000
Si      -0.00057015       2.71542897      -2.71707762       0.00000000
