10
Lattice="16.28999089631971 0.0 0.0 0.0 16.28999089631971 0.0 0.0 0.0 34.450931932916035" Properties=species:S:1:pos:R:3:initial_magmoms:R:1 pbc="T T T"
Si       0.86830587       2.00475491      -0.98774322       0.00000000
Si      -1.96361289      -0.70752098      -1.21549846       0.00000000
Si      -1.53068985      -0.64003312       1.76357864       0.00000000
Si       1.81112124      -1.60904216       0.32277096       0.00000000
Si      -0.50332842      -2.05004504      -2.53369520       0.00000000
Si       2.20764753       0.68718550      -2.54630425       0.00000000
Si       0.92081377      -3.41891003      -1.07094227       0.00000000
Si       3.52317581      -0.67611386      -1.16017023       0.00000000
Si      -3.64847130      -1.53663311       0.26530678       0.00000000
Si      -3.17674548       1.10196311       2.12245420       0.00000000
