10
Lattice="16.28999089631971 0.0 0.0 0.0 16.28999089631971 0.0 0.0 0.0 34.450931932916035" Properties=species:S:1:pos:R:3:initial_magmoms:R:1 pbc="T T T"
Si      -2.17675125       0.48094596       0.64375047       0.00000000
Si       0.56532883      -2.04721154       0.95680627       0.00000000
Si       1.51605070       1.53960048       0.97482411       0.00000000
Si      -0.32246055       0.43798923      -2.30845489       0.00000000
Si      -2.11473522       2.78296731      -0.15123968       0.00000000
Si      -2.27543607      -0.91887003      -2.60838487       0.00000000
Si      -0.81129087       2.75832054      -2.18470707       0.00000000
Si       0.80601847      -1.36693625       3.24789787       0.00000000
Si      -3.37952340      -1.24503818      -0.49354433       0.00000000
Si       2.76161831      -2.52587527       0.20467310       0.00000000
