10
Lattice="16.28999089631971 0.0 0.0 0.0 16.28999089631971 0.0 0.0 0.0 34.450931932916035" Properties=species:S:1:pos:R:3:initial_magmoms:R:1 pbc="T T T"
Si       2.30408108       0.21927969       0.09191514       0.00000000
Si      -0.83264706       2.08430550      -0.68660746       0.00000000
Si      -0.38196792      -1.99726803      -1.19152060       0.00000000
Si      -0.78532461       0.07697025       2.25388458       0.00000000
Si      -2.60387505      -1.44280530       1.81380813       0.00000000
Si      -2.57997762      -2.35799379      -0.38529944       0.00000000
Si       3.28687307      -1.83097971       0.74507072       0.00000000
Si       3.28530923       1.32779790      -1.72354664       0.00000000
Si      -1.66581540       3.31890831       1.37149237       0.00000000
Si       1.87089577      -2.31694299       2.61551621       0.00000000
