10
Lattice="16.28999089631971 0.0 0.0 0.0 16.28999089631971 0.0 0.0 0.0 34.450931932916035" Properties=species:S:1:pos:R:3:initial_magmoms:R:1 pbc="T T T"
Si      -1.36013355      -1.33608951       1.37235020       0.00000000
Si      -1.33801173       1.36932111      -1.38593765       0.00000000
Si       1.35505107       1.37577195       1.36394416       0.00000000
Si       1.45290510      -1.42724835      -1.43023468       0.00000000
Si       0.53385588       2.10212676      -2.65244488       0.00000000
Si       2.39016654       0.46985247      -2.51909214       0.00000000
Si      -2.60532486      -0.14652855      -2.68390500       0.00000000
Si      -2.70244584      -2.68934868       0.00624251       0.00000000
Si      -0.00495216      -2.69122203       2.72658264       0.00000000
Si       2.72609905      -2.70681156       0.02033640       0.00000000
