10
Lattice="16.28999089631971 0.0 0.0 0.0 16.28999089631971 0.0 0.0 0.0 34.450931932916035" Properties=species:S:1:pos:R:3:initial_magmoms:R:1 pbc="T T T"
Si      -0.67210911      -0.10749771       2.25646840       0.00000000
Si      -0.38323854      -2.23422237      -0.66500671       0.00000000
Si       2.20521870       1.20084993      -0.22458575       0.00000000
Si      -1.57718151       1.00641249      -2.42386557       0.00000000
Si      -0.19008801       2.14700571       2.33556778       0.00000000
Si       1.10403846      -1.53621216      -2.60177028       0.00000000
Si       2.07208378       1.84557555       2.00328836       0.00000000
Si       0.62400474      -3.26503728       1.25887221       0.00000000
Si       2.31896851       0.74099952      -2.76014131       0.00000000
Si       2.68315589      -2.05133454       1.59070377       0.00000000
