10
Lattice="16.28999089631971 0.0 0.0 0.0 16.28999089631971 0.0 0.0 0.0 34.450931932916035" Properties=species:S:1:pos:R:3:initial_magmoms:R:1 pbc="T T T"
Si       1.63462072      -0.32534388      -1.61202891       0.00000000
Si      -0.80422101      -2.13604254       0.51645421       0.00000000
Si       1.06967700       0.39850227       2.08541943       0.00000000
Si      -0.99429273       2.20045320      -0.00375515       0.00000000
Si      -1.62279351      -0.24602787      -2.36929527       0.00000000
Si      -1.14077241       2.00847555      -2.29019588       0.00000000
Si      -2.93645169       1.15217541       0.83488435       0.00000000
Si      -2.63358801      -1.10498328       1.59359765       0.00000000
Si       1.12139938       1.70704539      -2.62247531       0.00000000
Si       2.47747184      -1.48038633       2.19786733       0.00000000
