10
Lattice="16.28999089631971 0.0 0.0 0.0 16.28999089631971 0.0 0.0 0.0 34.450931932916035" Properties=species:S:1:pos:R:3:initial_magmoms:R:1 pbc="T T T"
Si      -0.04219110      -1.16993151       2.12241975       0.00000000
Si      -1.61069004       1.78768089      -0.73959302       0.00000000
Si       2.14739667       1.21350726       0.51848682       0.00000000
Si       0.83316834      -1.23460281      -2.05809982       0.00000000
Si       1.30634397       3.04992783      -0.76780835       0.00000000
Si       0.88049079      -3.24193806       0.88239221       0.00000000
Si      -1.18846953       1.27974240      -3.04412050       0.00000000
Si      -0.64822797       3.67622946       0.31446828       0.00000000
Si       0.96488928       2.20188672      -2.88495710       0.00000000
Si      -0.96858711      -1.03133619      -3.48161313       0.00000000
