10
Lattice="16.28999089631971 0.0 0.0 0.0 16.28999089631971 0.0 0.0 0.0 34.450931932916035" Properties=species:S:1:pos:R:3:initial_magmoms:R:1 pbc="T T T"
Si       0.40547439       2.33412894       0.08116644       0.00000000
Si       2.31264243      -0.56347110      -0.01515842       0.00000000
Si      -1.52898917      -0.67733820       1.71166106       0.00000000
Si      -0.96070601      -1.06233606      -2.08411029       0.00000000
Si      -2.00692637       2.57484627      -0.10362846       0.00000000
Si      -0.03192840      -2.05398981       2.84334035       0.00000000
Si       2.04841863       2.37925224      -1.65550601       0.00000000
Si       2.84980518       0.18477747      -2.30373511       0.00000000
Si      -1.62683995       1.18718262       3.13469205       0.00000000
Si       2.52750753      -2.90587536       0.30537323       0.00000000
