10
Lattice="16.28999089631971 0.0 0.0 0.0 16.28999089631971 0.0 0.0 0.0 34.450931932916035" Properties=species:S:1:pos:R:3:initial_magmoms:R:1 pbc="T T T"
Si       0.16433352       0.31498344       2.28413251       0.00000000
Si      -2.21106451      -0.21983355      -0.70069790       0.00000000
Si       1.00056438      -2.13449499       0.14093884       0.00000000
Si       0.62428167       1.76138883      -1.48976248       0.00000000
Si       3.07889145      -1.14406299      -0.33114254       0.00000000
Si      -1.11233007       3.29000985      -0.93172597       0.00000000
Si      -2.11321373      -2.08435437      -2.12372889       0.00000000
Si      -0.61615296      -3.46100598      -0.99204959       0.00000000
Si      -1.36821339      -1.37487600       3.10919834       0.00000000
Si      -2.72428584       1.81255572      -1.71114429       0.00000000
