10
Lattice="16.28999089631971 0.0 0.0 0.0 16.28999089631971 0.0 0.0 0.0 34.450931932916035" Properties=species:S:1:pos:R:3:initial_magmoms:R:1 pbc="T T T"
Si      -2.26217179       0.30143016       0.33227942       0.00000000
Si       1.61195577       1.47745413       0.77941832       0.00000000
Si       0.13313491      -0.64472562      -2.22787411       0.00000000
Si       0.51322134      -2.03238927       1.01044640       0.00000000
Si      -1.12139938      -1.70704539       2.62247531       0.00000000
Si       3.34856751      -0.05116689       0.22138181       0.00000000
Si      -2.74419289      -1.95307326       0.25318004       0.00000000
Si       2.54553567      -0.88544295      -2.04307921       0.00000000
Si      -2.11569211       0.49340781       2.61872015       0.00000000
Si      -2.07208378      -1.84557555      -2.00328836       0.00000000
