10
Lattice="16.28999089631971 0.0 0.0 0.0 16.28999089631971 0.0 0.0 0.0 34.450931932916035" Properties=species:S:1:pos:R:3:initial_magmoms:R:1 pbc="T T T"
Si      -1.35052245      -1.35760860      -1.36925305       0.00000000
Si       1.36500426       1.35869746      -1.36594576       0.00000000
Si       1.45995867      -1.22016987       1.40473753       0.00000000
Si      -1.40032098       1.35935163       1.38327459       0.00000000
Si       2.50377300       0.46294551       2.78243107       0.00000000
Si      -2.68222343      -2.71160082       0.01202338       0.00000000
Si       2.72784195      -2.69263926      -0.00554660       0.00000000
Si      -2.70586511       0.00210141      -2.72717175       0.00000000
Si      -2.71584925       2.72265100      -0.00285943       0.00000000
Si       0.00850338      -2.71228500      -2.72744735       0.00000000
