10
Lattice="16.28999089631971 0.0 0.0 0.0 16.28999089631971 0.0 0.0 0.0 34.450931932916035" Properties=species:S:1:pos:R:3:initial_magmoms:R:1 pbc="T T T"
Si      -1.31552827       1.36329937      -1.38613402       0.00000000
Si       1.40032098      -1.35935163      -1.38327459       0.00000000
Si       0.96031179       1.82750084       1.21615303       0.00000000
Si      -1.71205457      -0.93292830       1.48294119       0.00000000
Si       2.38860270       0.61692741       2.67694226       0.00000000
Si      -3.52317581       0.67611386       1.16017023       0.00000000
Si      -2.65486994       2.68086878       0.17242701       0.00000000
Si      -2.60236203      -2.74279617       0.08922796       0.00000000
Si      -2.66429589       0.00390960      -2.75201088       0.00000000
Si       2.86027965      -2.57952150       0.02146294       0.00000000
