10
Lattice="10.86 0.0 0.0 0.0 10.86 0.0 0.0 0.0 10.86" Properties=species:S:1:pos:R:3:initial_magmoms:R:1 pbc="T T T"
Si      -1.27651698      -1.28116506      -1.43289012       0.00000000
Si      -1.27651698       1.43383494       1.28210988       0.00000000
Si       1.43848302      -1.28116506       1.28210988       0.00000000
Si      -2.63401698      -2.63866506      -0.07539012       0.00000000
Si      -2.63401698       0.07633494       2.63960988       0.00000000
Si       0.08098302      -2.63866506       2.63960988       0.00000000
Si      -2.63401698       0.07633494      -2.79039012       0.00000000
Si      -2.63401698       2.79133494      -0.07539012       0.00000000
Si       0.08098302      -2.63866506      -2.79039012       0.00000000
Si       0.08098302       2.79133494       2.63960988       0.00000000
