10
Lattice="16.28999089631971 0.0 0.0 0.0 16.28999089631971 0.0 0.0 0.0 34.185847837958455" Properties=species:S:1:pos:R:3:initial_magmoms:R:1 pbc="T T T"
Si      -1.39569788       1.27694698      -1.36357167       0.00000000
Si       1.33175637       1.35723550       1.35271082       0.00000000
Si      -1.38539608      -1.35481559       1.34953154       0.00000000
Si       1.28572083      -1.41083690      -1.39575425       0.00000000
Si      -0.56195613      -2.29587260      -2.58216998       0.00000000
Si      -2.45966782      -0.51535931      -2.55882889       0.00000000
Si       2.68105707       2.71098011      -0.04080083       0.00000000
Si       2.68626987      -0.00025322       2.71132555       0.00000000
Si       2.67561621      -2.73589808      -0.01239580       0.00000000
Si      -0.02717172       2.71537841       2.71036834       0.00000000
