10
Lattice="16.28999089631971 0.0 0.0 0.0 16.28999089631971 0.0 0.0 0.0 34.185847837958455" Properties=species:S:1:pos:R:3:initial_magmoms:R:1 pbc="T T T"
Si       1.35705474       1.35679410       1.35741822       0.00000000
Si       1.35780408      -1.35777476      -1.35697380       0.00000000
Si      -1.35767376       1.35845568      -1.35714473       0.00000000
Si      -1.35933534      -1.35789856       1.35748659       0.00000000
Si      -2.71415835       0.00097740       2.71292203       0.00000000
Si       2.71388142      -0.00105885      -2.71428946       0.00000000
Si       2.71472850      -2.71433644      -0.00034186       0.00000000
Si      -0.00081450       2.71524978      -2.71425528       0.00000000
Si      -2.71485882      -2.71479635       0.00020512       0.00000000
Si      -2.71502172       2.71531494       0.00034186       0.00000000
