10
Lattice="16.28999089631971 0.0 0.0 0.0 16.28999089631971 0.0 0.0 0.0 34.185847837958455" Properties=species:S:1:pos:R:3:initial_magmoms:R:1 pbc="T T T"
Si      -0.37792800      -2.23528841      -0.52338562       0.00000000
Si      -2.17160361       0.86641623       0.33789311       0.00000000
Si       0.94180635       0.64176084       2.09238017       0.00000000
Si       1.43791830       0.36818658      -2.04178509       0.00000000
Si      -1.47738897       3.09220038       0.55640917       0.00000000
Si       1.75760955      -3.27071339      -0.04345024       0.00000000
Si      -3.42669598       0.12403206      -1.48417941       0.00000000
Si       0.00780291       2.87955072       2.42035938       0.00000000
Si       1.83589929       2.76486912      -1.91957061       0.00000000
Si       3.24827487       0.28663884       2.09897804       0.00000000
