10
Lattice="16.28999089631971 0.0 0.0 0.0 16.28999089631971 0.0 0.0 0.0 34.185847837958455" Properties=species:S:1:pos:R:3:initial_magmoms:R:1 pbc="T T T"
Si       1.35728280       1.35687555      -1.35693962       0.00000000
Si      -1.35716877       1.35762489       1.35755496       0.00000000
Si       1.35769005      -1.35729909       1.35738403       0.00000000
Si      -1.35840681      -1.35764118      -1.35680287       0.00000000
Si      -2.71200807      -0.00636939      -2.71446039       0.00000000
Si       0.00118917       2.71283886       2.71422109       0.00000000
Si       2.71298547       0.00089595       2.71415272       0.00000000
Si      -2.71459818      -0.00021177       2.71384505       0.00000000
Si       0.00078192      -2.71350675      -2.71572527       0.00000000
Si      -0.00184077       2.71420722      -2.71521248       0.00000000
