10
Lattice="16.28999089631971 0.0 0.0 0.0 16.28999089631971 0.0 0.0 0.0 34.185847837958455" Properties=species:S:1:pos:R:3:initial_magmoms:R:1 pbc="T T T"
Si      -1.35746199       1.35812988       1.34955547       0.00000000
Si      -1.35801585      -1.35736425      -1.35605078       0.00000000
Si       1.35742941       1.35783666      -1.35629009       0.00000000
Si       1.35959598      -1.36005210       1.36199912       0.00000000
Si      -2.70194411       0.00480555       2.68557334       0.00000000
Si      -0.00237834       2.71992501       2.70051256       0.00000000
Si      -0.00066789      -2.71422351      -2.71353737       0.00000000
Si      -0.00037467       2.71490769      -2.71350319       0.00000000
Si       2.71459818       0.00021177      -2.71384505       0.00000000
Si      -2.71511620       0.00029322      -2.71333226       0.00000000
