10
Lattice="16.28999089631971 0.0 0.0 0.0 16.28999089631971 0.0 0.0 0.0 34.185847837958455" Properties=species:S:1:pos:R:3:initial_magmoms:R:1 pbc="T T T"
Si      -1.81206702      -0.91777860      -1.16307157       0.00000000
Si       0.95957874       1.84236642      -1.09873376       0.00000000
Si       1.84155192      -1.64840139       0.20884146       0.00000000
Si      -1.61560962       2.07808272      -0.55866544       0.00000000
Si      -2.21853510       1.11320973       1.47081274       0.00000000
Si      -0.34630911      -2.19007647      -2.42617098       0.00000000
Si      -0.40330782      -0.40811337       3.39062266       0.00000000
Si       2.38879818       0.55493514      -2.42565819       0.00000000
Si       1.53767826      -1.75829373       2.59330568       0.00000000
Si       0.97037901      -3.56990463      -1.00848307       0.00000000
