10
Lattice="16.28999089631971 0.0 0.0 0.0 16.28999089631971 0.0 0.0 0.0 34.185847837958455" Properties=species:S:1:pos:R:3:initial_magmoms:R:1 pbc="T T T"
Si       2.31269293       0.49373361       0.13650417       0.00000000
Si      -1.10985955       2.09104956      -0.13852113       0.00000000
Si      -1.06196695      -0.61792857       2.07084308       0.00000000
Si      -0.15121844      -1.52868618      -1.97536195       0.00000000
Si      -1.62441178       0.34357239      -2.91697747       0.00000000
Si      -3.12144649       0.87641829      -1.10013538       0.00000000
Si       1.20311587      -3.28879462      -0.90018225       0.00000000
Si       0.18517820      -2.36141469       2.92179768       0.00000000
Si       2.54093212       2.09541528       1.84911354       0.00000000
Si      -3.26292514      -1.21554351       1.53938959       0.00000000
