10
Lattice="16.28999089631971 0.0 0.0 0.0 16.28999089631971 0.0 0.0 0.0 34.185847837958455" Properties=species:S:1:pos:R:3:initial_magmoms:R:1 pbc="T T T"
Si       0.07483626      -0.74132532       2.17770810       0.00000000
Si      -2.22855345       0.59367276      -0.41751199       0.00000000
Si       0.50963265      -1.98335637      -1.27455168       0.00000000
Si       1.07106750       2.17334664       0.07045707       0.00000000
Si       1.23245253       2.56038075      -2.22402995       0.00000000
Si       2.27887326      -1.33275006       2.51819933       0.00000000
Si       0.37436049      -1.15116543      -3.50148742       0.00000000
Si       0.25993953       1.12609512       3.58616581       0.00000000
Si      -2.90297574       1.98415458       1.45054052       0.00000000
Si      -2.48961699       1.24783029      -2.71722945       0.00000000
