10
Lattice="16.28999089631971 0.0 0.0 0.0 16.28999089631971 0.0 0.0 0.0 34.185847837958455" Properties=species:S:1:pos:R:3:initial_magmoms:R:1 pbc="T T T"
Si      -0.07483626       0.74132532      -2.17770810       0.00000000
Si       2.20403700      -0.59142474       0.34049123       0.00000000
Si       0.18510327       1.86742044       1.40845772       0.00000000
Si      -1.07087202      -2.08047735       0.35368698       0.00000000
Si       0.11267793       0.58391505       3.41568090       0.00000000
Si       2.26955538      -0.40542552       2.72601522       0.00000000
Si       0.43479639      -1.24203105      -3.45225977       0.00000000
Si       2.52061686      -2.65013865      -0.66344512       0.00000000
Si      -2.30338971       1.33499808      -2.59522009       0.00000000
Si       0.99623124       2.91467196      -2.10725102       0.00000000
