10
Lattice="16.28999089631971 0.0 0.0 0.0 16.28999089631971 0.0 0.0 0.0 34.185847837958455" Properties=species:S:1:pos:R:3:initial_magmoms:R:1 pbc="T T T"
Si      -0.01433520       1.69995924       1.66235615       0.00000000
Si       0.07242534       1.28350539      -2.00722318       0.00000000
Si      -1.71004275      -1.58239431       0.63681433       0.00000000
Si       2.15687745      -0.98934057      -0.68966568       0.00000000
Si      -0.11267793      -0.58391505      -3.41568090       0.00000000
Si       1.30295565       0.57627504       3.22933138       0.00000000
Si      -1.04392836      -3.38217867      -0.79304374       0.00000000
Si      -2.45289933      -0.93874383       2.88118487       0.00000000
Si       2.09135907      -1.17533979      -3.07518966       0.00000000
Si       2.78699094      -2.69456148       0.83981001       0.00000000
