10
Lattice="16.28999089631971 0.0 0.0 0.0 16.28999089631971 0.0 0.0 0.0 34.185847837958455" Properties=species:S:1:pos:R:3:initial_magmoms:R:1 pbc="T T T"
Si      -1.35661491      -1.35681039       1.35731566       0.00000000
Si      -1.35540945       1.36124127      -1.35482009       0.00000000
Si       1.35651717      -1.35729909      -1.35823868       0.00000000
Si       1.35790182       1.35887922       1.35693962       0.00000000
Si       0.01133784      -2.70844056      -2.69912803       0.00000000
Si      -0.01151703       2.69412165      -2.72389227       0.00000000
Si      -2.71456560       2.71373481      -0.00064953       0.00000000
Si       0.00118917      -2.71388142       2.71452876       0.00000000
Si      -2.71386513      -2.71458189      -0.00133325       0.00000000
Si       2.71443528       2.71479366      -0.00085465       0.00000000
