10
Lattice="16.28999089631971 0.0 0.0 0.0 16.28999089631971 0.0 0.0 0.0 34.185847837958455" Properties=species:S:1:pos:R:3:initial_magmoms:R:1 pbc="T T T"
Si       0.71710209      -1.48044986       1.72074561       0.00000000
Si       1.07789301       0.30985209      -2.10133687       0.00000000
Si      -2.24512852      -0.73871892      -0.29594705       0.00000000
Si       0.61774938       2.25205992       0.53384650       0.00000000
Si      -0.11761380       2.11642938      -3.08124056       0.00000000
Si       2.92063410       2.01885228       1.27865398       0.00000000
Si      -3.49227368       1.00476720      -1.14690165       0.00000000
Si      -2.25838696      -2.28073751      -2.09388435       0.00000000
Si      -3.05643894      -1.57719454       1.75592287       0.00000000
Si      -1.13327901      -2.92394816       2.40682178       0.00000000
