10
Lattice="16.28999089631971 0.0 0.0 0.0 16.28999089631971 0.0 0.0 0.0 34.185847837958455" Properties=species:S:1:pos:R:3:initial_magmoms:R:1 pbc="T T T"
Si      -1.29816639       0.14706612       1.97361847       0.00000000
Si      -0.94899024       0.60116616      -2.08697881       0.00000000
Si       1.64590902       1.79634717      -0.06997847       0.00000000
Si       0.94467339      -2.27825424       0.18590274       0.00000000
Si      -2.88963423       1.19257461      -0.93638508       0.00000000
Si       2.41256529      -1.42063461       1.78378435       0.00000000
Si       1.77702723      -2.26419597      -2.19213453       0.00000000
Si       3.62582820       0.37709721       0.13688021       0.00000000
Si       0.12851181       1.44182790       3.34853985       0.00000000
Si      -1.82231343      -2.16593469       2.42658121       0.00000000
