10
Lattice="16.28999089631971 0.0 0.0 0.0 16.28999089631971 0.0 0.0 0.0 34.185847837958455" Properties=species:S:1:pos:R:3:initial_magmoms:R:1 pbc="T T T"
Si      -1.69732026       1.54670292      -0.26326536       0.00000000
Si       0.58673322      -1.31575959      -1.82802086       0.00000000
Si      -0.47693862      -1.38293955       1.84791704       0.00000000
Si       2.09135907       1.16001090       0.19256899       0.00000000
Si      -3.12399846       0.25194114      -1.63818674       0.00000000
Si       1.69991037      -1.86333165       2.53536064       0.00000000
Si      -2.33676792       1.87354548       1.99782206       0.00000000
Si      -1.42359939       0.14618646       3.31517445       0.00000000
Si       3.13217604      -0.07626978       1.88548731       0.00000000
Si       2.33580681      -2.76467364      -1.03812222       0.00000000
