10
Lattice="16.28999089631971 0.0 0.0 0.0 16.28999089631971 0.0 0.0 0.0 34.185847837958455" Properties=species:S:1:pos:R:3:initial_magmoms:R:1 pbc="T T T"
Si       0.81131042       0.83847562      -2.05186992       0.00000000
Si       0.08839769       1.90059991       1.51925411       0.00000000
Si       1.92315993      -1.34675361       0.65089891       0.00000000
Si      -2.23563538      -0.88993314      -0.40168394       0.00000000
Si       0.84669067       0.89847006       3.49803465       0.00000000
Si       3.77354103       0.09674468      -0.03517726       0.00000000
Si      -1.98330328      -3.21928911      -0.71656996       0.00000000
Si       2.12777862      -1.16018424       3.00172423       0.00000000
Si       3.05643894       1.57719454      -1.75592287       0.00000000
Si      -0.43583473       2.58196174      -2.90282452       0.00000000
