10
Lattice="16.28999089631971 0.0 0.0 0.0 16.28999089631971 0.0 0.0 0.0 34.185847837958455" Properties=species:S:1:pos:R:3:initial_magmoms:R:1 pbc="T T T"
Si      -1.35581670      -1.35601218       1.35738403       0.00000000
Si      -1.35451350       1.35748872      -1.35861472       0.00000000
Si       1.36208835      -1.35439947      -1.35793101       0.00000000
Si       1.35943308       1.35805236       1.35762333       0.00000000
Si      -2.68626987       0.00025322      -2.71132555       0.00000000
Si       2.70141957       0.00638568      -2.71014614       0.00000000
Si       0.00185706      -2.71349046       2.71432365       0.00000000
Si      -2.71322982       0.00103077       2.71480225       0.00000000
Si      -2.71344159       2.71563164      -0.00095720       0.00000000
Si      -2.71370223      -2.71603170      -0.00047860       0.00000000
