10
Lattice="16.28999089631971 0.0 0.0 0.0 16.28999089631971 0.0 0.0 0.0 34.185847837958455" Properties=species:S:1:pos:R:3:initial_magmoms:R:1 pbc="T T T"
Si      -1.64590902      -1.79634717       0.06997847       0.00000000
Si       1.97991918      -1.41924996       0.20685868       0.00000000
Si      -0.72076734       1.34314308       1.94849186       0.00000000
Si      -0.22421556       1.69179795      -2.04520368       0.00000000
Si      -2.59489926      -1.19518101      -2.01700034       0.00000000
Si      -1.20417309       0.13585860      -3.50473508       0.00000000
Si      -1.51739721      -0.35451927       3.41851832       0.00000000
Si       0.76665627      -3.21698178       1.85376282       0.00000000
Si      -2.94407541      -1.64928105       2.04359694       0.00000000
Si      -2.85630489       2.37856806       1.46855647       0.00000000
