10
Lattice="16.28999089631971 0.0 0.0 0.0 16.28999089631971 0.0 0.0 0.0 34.185847837958455" Properties=species:S:1:pos:R:3:initial_magmoms:R:1 pbc="T T T"
Si       1.87348032       0.33933114      -1.34897431       0.00000000
Si       1.19439909      -1.26925164       1.60632552       0.00000000
Si      -0.29838393       2.07189971       1.25783479       0.00000000
Si      -1.78904925      -1.48545252      -0.88459349       0.00000000
Si       0.63482130       1.70648243      -2.96189770       0.00000000
Si       0.06094089      -0.80767449       3.61676216       0.00000000
Si      -2.60485245       2.42702171       1.25123692       0.00000000
Si       0.30050163       1.54991272       3.53495539       0.00000000
Si       1.20300021      -3.56980689       1.04126732       0.00000000
Si       2.88559431       2.51229986      -1.07076972       0.00000000
