10
Lattice="16.28999089631971 0.0 0.0 0.0 16.28999089631971 0.0 0.0 0.0 34.185847837958455" Properties=species:S:1:pos:R:3:initial_magmoms:R:1 pbc="T T T"
Si      -0.94385889      -1.89113868      -1.03309690       0.00000000
Si       2.34220878       0.15745914      -0.26285513       0.00000000
Si      -1.02814335       1.98470585      -0.82787914       0.00000000
Si      -0.11132586      -0.77022378       2.31499854       0.00000000
Si       1.35707103      -2.53138455       1.83762709       0.00000000
Si       2.58176952       2.51504635      -0.34466191       0.00000000
Si      -0.03069036      -3.61849770       0.28425548       0.00000000
Si       3.27955167      -1.29293730       1.38873247       0.00000000
Si      -0.97840998       3.57079148       0.87987584       0.00000000
Si      -3.28349385       1.59484054      -1.13671426       0.00000000
