10
Lattice="16.28999089631971 0.0 0.0 0.0 16.28999089631971 0.0 0.0 0.0 34.185847837958455" Properties=species:S:1:pos:R:3:initial_magmoms:R:1 pbc="T T T"
Si       1.83413997       1.04922554       1.05890723       0.00000000
Si      -1.55002608      -1.18005348       1.38439087       0.00000000
Si       0.77072877      -1.69651164      -1.54123563       0.00000000
Si      -0.99914715       1.79256919      -1.38008345       0.00000000
Si      -2.49921180      -2.41661109      -0.40380346       0.00000000
Si       0.73751346       2.73054739       2.28088104       0.00000000
Si      -0.00892692      -0.72797340      -3.63139372       0.00000000
Si       0.19194507       1.65327340      -3.34833474       0.00000000
Si       2.76169257       2.54441785      -0.48967836       0.00000000
Si      -0.60390288      -3.61677684      -1.15370464       0.00000000
