10
Lattice="16.28999089631971 0.0 0.0 0.0 16.28999089631971 0.0 0.0 0.0 34.185847837958455" Properties=species:S:1:pos:R:3:initial_magmoms:R:1 pbc="T T T"
Si       0.49197429       1.26664850      -1.93102288       0.00000000
Si       1.49262012      -1.84007346       0.23219041       0.00000000
Si      -2.24489232      -0.78053046       0.31129650       0.00000000
Si       0.86477094       1.49332385       1.74908570       0.00000000
Si      -1.69336179      -2.48564616       1.88056454       0.00000000
Si       1.58860080      -0.41467335      -3.15299669       0.00000000
Si      -1.18943064       2.66204990       2.15723076       0.00000000
Si      -3.08131866       1.03399472       1.77240046       0.00000000
Si       0.01013238      -3.67460439       0.69301589       0.00000000
Si       2.89548234       2.26354763       0.80986319       0.00000000
