10
Lattice="16.28999089631971 0.0 0.0 0.0 16.28999089631971 0.0 0.0 0.0 34.185847837958455" Properties=species:S:1:pos:R:3:initial_magmoms:R:1 pbc="T T T"
Si      -0.31657986       2.05871391       1.00393635       0.00000000
Si       0.08211789       0.52245288      -2.27414643       0.00000000
Si      -2.13504885      -1.05169869      -0.02345150       0.00000000
Si       2.06045694      -0.85590918       0.83068238       0.00000000
Si       0.32379633      -1.79388738      -2.83028211       0.00000000
Si       1.21264389       3.37018923      -0.29126359       0.00000000
Si       1.61533269       2.27670669      -2.34576582       0.00000000
Si      -2.52061686       2.65013865       0.66344512       0.00000000
Si      -2.08582047       1.40810760      -2.78881465       0.00000000
Si      -3.59148888       0.56966130       1.01713210       0.00000000
