10
Lattice="16.28999089631971 0.0 0.0 0.0 16.28999089631971 0.0 0.0 0.0 34.185847837958455" Properties=species:S:1:pos:R:3:initial_magmoms:R:1 pbc="T T T"
Si      -1.25332002       1.61603316       1.05446307       0.00000000
Si       1.14587118       1.47626496      -1.42179021       0.00000000
Si      -1.54932561      -1.10278413      -1.44151545       0.00000000
Si       1.44166500      -1.25286390       1.50479349       0.00000000
Si      -1.52777394       0.73687815       3.14756114       0.00000000
Si      -0.18547794      -2.89241982       2.09484155       0.00000000
Si       2.61602739      -2.74905153       0.12631678       0.00000000
Si       2.52508032       0.18691146      -2.85093037       0.00000000
Si      -0.21066228      -2.52858267      -2.85024666       0.00000000
Si       1.88742456       3.38439411      -0.29933145       0.00000000
