10
Lattice="16.28999089631971 0.0 0.0 0.0 16.28999089631971 0.0 0.0 0.0 34.185847837958455" Properties=species:S:1:pos:R:3:initial_magmoms:R:1 pbc="T T T"
Si      -0.63648288       1.83283677       1.35523032       0.00000000
Si       2.17460097      -0.68352840       0.69346031       0.00000000
Si      -1.49457492      -1.87870941       0.07777285       0.00000000
Si      -0.00058644       0.93149478      -2.21825253       0.00000000
Si      -2.81333187       2.31322887       0.66778672       0.00000000
Si       0.79578279       3.61989864       0.70535699       0.00000000
Si      -1.35930276      -2.71090035       2.30470859       0.00000000
Si       2.96067492      -2.43229248      -0.65055705       0.00000000
Si       2.63432106       2.83486725      -0.49685739       0.00000000
Si      -3.66546177      -1.18340334      -0.63079762       0.00000000
