10
Lattice="16.28999089631971 0.0 0.0 0.0 16.28999089631971 0.0 0.0 0.0 34.185847837958455" Properties=species:S:1:pos:R:3:initial_magmoms:R:1 pbc="T T T"
Si      -0.94237650      -1.62957015       1.38982099       0.00000000
Si       1.81270233       1.00942614       1.27147294       0.00000000
Si      -1.63810611       1.87255179       0.27399737       0.00000000
Si      -0.15407082      -1.39828473      -2.11552400       0.00000000
Si      -2.24505522      -0.19205910       2.75525238       0.00000000
Si      -0.78418431       0.30693618      -3.64499969       0.00000000
Si       0.52113339       2.50077564       2.77148383       0.00000000
Si      -1.82086362      -3.49084926      -0.03873259       0.00000000
Si       2.74150926       2.86358652       0.10047264       0.00000000
Si       2.96922717       1.76357169      -1.95132929       0.00000000
