10
Lattice="16.28999089631971 0.0 0.0 0.0 16.28999089631971 0.0 0.0 0.0 34.185847837958455" Properties=species:S:1:pos:R:3:initial_magmoms:R:1 pbc="T T T"
Si       1.35638685       1.35562122       1.35652939       0.00000000
Si      -1.35679410       1.35654975      -1.35711055       0.00000000
Si      -1.35922131      -1.35685926       1.35697380       0.00000000
Si       1.35814617      -1.35837423      -1.35693962       0.00000000
Si       0.00309510       2.71163340       2.71439202       0.00000000
Si      -2.71544526       0.00255753       2.71152041       0.00000000
Si      -0.00058644       2.71394658      -2.71500737       0.00000000
Si      -2.71492398      -0.00087966      -2.71411853       0.00000000
Si      -2.71479366       2.71445157      -0.00030767       0.00000000
Si      -2.71451673      -2.71505430       0.00020512       0.00000000
