10
Lattice="16.28999089631971 0.0 0.0 0.0 16.28999089631971 0.0 0.0 0.0 34.185847837958455" Properties=species:S:1:pos:R:3:initial_magmoms:R:1 pbc="T T T"
Si       1.35852130      -1.35143469      -1.35793101       0.00000000
Si      -1.35675847      -1.35492075       1.35642683       0.00000000
Si       1.35846917       1.36001952       1.35697380       0.00000000
Si      -1.35620461       1.36039419      -1.36394772       0.00000000
Si       0.00056613      -2.71235016       2.71350319       0.00000000
Si       0.02084107       2.69584839      -2.73168665       0.00000000
Si      -2.71456255       0.00213399       2.71367412       0.00000000
Si      -2.71482319      -2.71349046       0.00020512       0.00000000
Si       2.71552065      -2.71314837      -0.00164092       0.00000000
Si       2.71556952       0.00236205       2.71425528       0.00000000
