10
Lattice="16.28999089631971 0.0 0.0 0.0 16.28999089631971 0.0 0.0 0.0 34.185847837958455" Properties=species:S:1:pos:R:3:initial_magmoms:R:1 pbc="T T T"
Si      -1.20428712       1.40882436       1.47902418       0.00000000
Si       1.50309459      -1.30539915       1.45472487       0.00000000
Si      -1.89297945      -0.94136652      -1.45694152       0.00000000
Si       1.05780744       1.94877270      -1.33982074       0.00000000
Si      -2.45474987       2.77571826       0.00263231       0.00000000
Si      -2.57366036      -2.73943228       0.13195403       0.00000000
Si      -2.56213355       0.06071283       2.84960396       0.00000000
Si       0.15379389      -2.65914376       2.84823653       0.00000000
Si      -0.88707195      -0.93149478      -3.72202869       0.00000000
Si      -3.65174396       0.87348609      -1.23162247       0.00000000
