10
Lattice="16.28999089631971 0.0 0.0 0.0 16.28999089631971 0.0 0.0 0.0 34.185847837958455" Properties=species:S:1:pos:R:3:initial_magmoms:R:1 pbc="T T T"
Si      -1.57491720      -0.41019849      -1.66221941       0.00000000
Si      -1.28355426       0.26784018       2.00527458       0.00000000
Si       0.80282007      -2.25100107       0.36667761       0.00000000
Si       0.93403602       2.28579651      -0.56581028       0.00000000
Si       1.59580098      -1.75347189       2.49597852       0.00000000
Si       2.95847577       0.10635741       1.89105960       0.00000000
Si      -2.78818011      -2.20793031      -0.01531527       0.00000000
Si       2.36894067       2.37548925       1.31854889       0.00000000
Si      -0.24273729      -0.96844050       3.69819290       0.00000000
Si      -1.29215538       2.56839543       2.57033278       0.00000000
