10
Lattice="16.28999089631971 0.0 0.0 0.0 16.28999089631971 0.0 0.0 0.0 34.185847837958455" Properties=species:S:1:pos:R:3:initial_magmoms:R:1 pbc="T T T"
Si      -1.37463165      -1.92026520       0.38753099       0.00000000
Si      -0.77072877       1.69651164       1.54123563       0.00000000
Si      -0.77965569       0.96853824      -2.09015809       0.00000000
Si       2.34875736      -0.73436949       0.04919346       0.00000000
Si      -3.26994057      -0.72009945       1.13743216       0.00000000
Si       2.31303339      -2.70751203      -1.17038734       0.00000000
Si      -2.32075485       0.51645816       2.92562649       0.00000000
Si       0.58727079       0.07581366      -3.77637598       0.00000000
Si      -0.57878370       3.34978505      -1.80709911       0.00000000
Si      -0.21685248      -3.51241722       1.71609633       0.00000000
