10
Lattice="16.28999089631971 0.0 0.0 0.0 16.28999089631971 0.0 0.0 0.0 34.185847837958455" Properties=species:S:1:pos:R:3:initial_magmoms:R:1 pbc="T T T"
Si       1.35753041      -1.35606105       1.35625590       0.00000000
Si       1.35666704       1.35827649      -1.35632427       0.00000000
Si      -1.35870273       1.35459495       1.35827287       0.00000000
Si      -1.35833635      -1.35643572      -1.35707636       0.00000000
Si       0.01273878       2.72044629       2.68529985       0.00000000
Si       2.71109909      -0.02941974       2.70505928       0.00000000
Si       2.71235342      -2.71493701       0.00082046       0.00000000
Si       2.71401500       0.00141723      -2.71381086       0.00000000
Si      -0.00100021      -2.71385536      -2.71442621       0.00000000
Si      -0.00043331       2.71593396      -2.71360575       0.00000000
