10
Lattice="16.28999089631971 0.0 0.0 0.0 16.28999089631971 0.0 0.0 0.0 34.185847837958455" Properties=species:S:1:pos:R:3:initial_magmoms:R:1 pbc="T T T"
Si       0.04593780      -0.14561631      -2.36395270       0.00000000
Si      -2.30223312       0.52240401       0.22097744       0.00000000
Si       1.25253810       2.02466781       0.14751202       0.00000000
Si       1.26438093      -1.74905567       1.10434025       0.00000000
Si      -1.58777001      -1.94889392      -2.40258273       0.00000000
Si      -2.32468074       1.62412929       2.30204209       0.00000000
Si       2.83465548       1.78600302      -1.55665345       0.00000000
Si      -3.31434711      -1.65056470      -0.05722714       0.00000000
Si       3.14820540      -2.07815507      -0.32575713       0.00000000
Si      -0.33233229      -3.45205367       1.64628879       0.00000000
