10
Lattice="16.28999089631971 0.0 0.0 0.0 16.28999089631971 0.0 0.0 0.0 34.185847837958455" Properties=species:S:1:pos:R:3:initial_magmoms:R:1 pbc="T T T"
Si       1.58211738      -0.23866479      -1.70416547       0.00000000
Si      -1.22753295       1.98353556       0.40428206       0.00000000
Si       1.45733598       0.24751026       1.87034297       0.00000000
Si      -1.25253810      -2.02466781      -0.14751202       0.00000000
Si      -1.20660030      -2.17028412      -2.51146471       0.00000000
Si      -2.03165622       1.41714855       2.52250675       0.00000000
Si       2.87627058      -2.10527073      -1.18108752       0.00000000
Si      -0.03969873       0.78035616       3.68718505       0.00000000
Si       2.88551027       2.08593450       1.31882237       0.00000000
Si      -3.55477122      -1.50226380       0.07346543       0.00000000
