10
Lattice="16.28999089631971 0.0 0.0 0.0 16.28999089631971 0.0 0.0 0.0 34.185847837958455" Properties=species:S:1:pos:R:3:initial_magmoms:R:1 pbc="T T T"
Si      -1.35689184       1.35718506      -1.35697380       0.00000000
Si       1.35609363       1.35751086       1.35834124       0.00000000
Si       1.35780408      -1.35705474      -1.35724729       0.00000000
Si      -1.35785295      -1.35944937       1.35762333       0.00000000
Si       0.00153126      -2.71319724       2.71240924       0.00000000
Si       2.71456255      -0.00213399      -2.71367412       0.00000000
Si      -0.00026064      -2.71562445      -2.71346900       0.00000000
Si      -2.71450044      -2.71466334       0.00027349       0.00000000
Si       2.71512868      -2.71448415      -0.00017093       0.00000000
Si       2.71476231      -0.00345348       2.71517830       0.00000000
