10
Lattice="16.28999089631971 0.0 0.0 0.0 16.28999089631971 0.0 0.0 0.0 34.185847837958455" Properties=species:S:1:pos:R:3:initial_magmoms:R:1 pbc="T T T"
Si      -1.35404109       1.35870003       1.35543544       0.00000000
Si      -1.35609363      -1.35751086      -1.35834124       0.00000000
Si       1.35956530       1.35759231      -1.35765752       0.00000000
Si       1.35866868      -1.36096434       1.35683706       0.00000000
Si       2.73011019       0.00488700       2.68386404       0.00000000
Si      -2.71298547      -0.00032580      -2.71531504       0.00000000
Si      -2.71474479       2.71366965      -0.00184604       0.00000000
Si       2.71507289       2.71484253      -0.00191441       0.00000000
Si       0.00171045      -2.71456560      -2.71558853       0.00000000
Si       0.00241092       2.71544526      -2.71541760       0.00000000
