10
Lattice="16.28999089631971 0.0 0.0 0.0 16.28999089631971 0.0 0.0 0.0 34.185847837958455" Properties=species:S:1:pos:R:3:initial_magmoms:R:1 pbc="T T T"
Si      -0.59900515       1.57832181       1.62878563       0.00000000
Si      -1.10997358      -2.05341966       0.39600908       0.00000000
Si      -1.32407305       0.48943305      -1.94452630       0.00000000
Si       1.69056154       1.59231492      -0.63879711       0.00000000
Si       0.33003703      -1.35014778      -2.01576964       0.00000000
Si       0.19341931       0.27117963       3.41899692       0.00000000
Si       3.50578882       0.07099182       1.28101281       0.00000000
Si       2.13348664      -0.95185728       2.95967562       0.00000000
Si      -2.69209096      -1.81475487       2.10017455       0.00000000
Si       2.09702962      -0.43867341      -3.27268141       0.00000000
