10
Lattice="16.28999089631971 0.0 0.0 0.0 16.28999089631971 0.0 0.0 0.0 34.185847837958455" Properties=species:S:1:pos:R:3:initial_magmoms:R:1 pbc="T T T"
Si      -1.97001486       0.52299045       1.12351852       0.00000000
Si       0.59900515      -1.57832181      -1.62878563       0.00000000
Si       0.79242446      -1.30714218       1.79021129       0.00000000
Si       1.21201902       2.03815593      -0.05134717       0.00000000
Si       2.28956669       0.01399311      -2.26758274       0.00000000
Si      -1.18983789       1.27400832       3.25049479       0.00000000
Si      -3.32061876      -1.40954112       0.87567098       0.00000000
Si       0.87945053       0.12864213       3.64017948       0.00000000
Si      -0.72506790      -1.08888876      -3.57331193       0.00000000
Si      -0.51096843      -3.63174147      -1.23277655       0.00000000
