10
Lattice="16.28999089631971 0.0 0.0 0.0 16.28999089631971 0.0 0.0 0.0 34.185847837958455" Properties=species:S:1:pos:R:3:initial_magmoms:R:1 pbc="T T T"
Si       1.97001486      -0.52299045      -1.12351852       0.00000000
Si      -1.19685888       1.74509883      -1.01685861       0.00000000
Si      -1.35060390      -1.93253157      -0.24784754       0.00000000
Si       0.78017697       0.75101787       2.12697627       0.00000000
Si       2.76243932      -1.83013263       0.66669278       0.00000000
Si      -1.34799750       1.01478555       3.17815749       0.00000000
Si       3.18203388       1.51516548      -1.17486569       0.00000000
Si      -2.15472717      -2.49891858       1.87037715       0.00000000
Si       2.84946539      -0.39434832       2.51666097       0.00000000
Si      -0.18005337       3.86563329      -0.67766644       0.00000000
