10
Lattice="16.28999089631971 0.0 0.0 0.0 16.28999089631971 0.0 0.0 0.0 34.185847837958455" Properties=species:S:1:pos:R:3:initial_magmoms:R:1 pbc="T T T"
Si      -0.80412327      -0.56638701       2.11822469       0.00000000
Si       1.22753295      -1.98353556      -0.40428206       0.00000000
Si       1.35060390       1.93253157       0.24784754       0.00000000
Si      -1.72838529      -0.57702438      -2.64813981       0.00000000
Si       2.68486893      -1.73602530       1.46606090       0.00000000
Si       1.18783422      -1.20317940       3.28290299       0.00000000
Si       3.32061876       1.40954112      -0.87567098       0.00000000
Si       0.15374502       3.67763040      -0.76901108       0.00000000
Si      -2.34968589      -2.38407408       1.75024802       0.00000000
Si      -1.59019722       1.18237707       3.46224205       0.00000000
