10
Lattice="16.28999089631971 0.0 0.0 0.0 16.28999089631971 0.0 0.0 0.0 34.185847837958455" Properties=species:S:1:pos:R:3:initial_magmoms:R:1 pbc="T T T"
Si      -1.34237745      -1.34664543      -1.37816904       0.00000000
Si       1.37419182       1.36591650      -1.37389581       0.00000000
Si       1.37555248      -1.43366661       1.35102546       0.00000000
Si      -1.39691637       1.32898707       1.45047215       0.00000000
Si       2.07914061       0.68634657       2.71740038       0.00000000
Si       0.30322206       2.42716113       2.75835505       0.00000000
Si      -2.68724727      -2.70782154       0.00639276       0.00000000
Si      -2.68838757       2.71415835      -0.01121296       0.00000000
Si      -2.70308115       0.00832419      -2.73545052       0.00000000
Si       0.01166364      -2.70534546      -2.73360448       0.00000000
