10
Lattice="16.28999089631971 0.0 0.0 0.0 16.28999089631971 0.0 0.0 0.0 34.185847837958455" Properties=species:S:1:pos:R:3:initial_magmoms:R:1 pbc="T T T"
Si       0.98629434       1.56905280      -1.46339441       0.00000000
Si      -1.21148730       1.38391695       1.51139136       0.00000000
Si      -1.70013843      -1.09817406      -1.30788290       0.00000000
Si       1.77591855      -1.74081456      -0.04095467       0.00000000
Si       3.12783380       0.86178987       1.29236251       0.00000000
Si       2.36944959       2.73680145       0.01148645       0.00000000
Si       0.38501415       3.42448380       1.22717007       0.00000000
Si      -0.30322206      -2.42716113      -2.75835505       0.00000000
Si       2.42932837       0.29388789      -2.77924261       0.00000000
Si      -2.94282108       2.66584221       0.04088630       0.00000000
