10
Lattice="16.28999089631971 0.0 0.0 0.0 16.28999089631971 0.0 0.0 0.0 34.185847837958455" Properties=species:S:1:pos:R:3:initial_magmoms:R:1 pbc="T T T"
Si       0.54817479       1.33478631       1.84063545       0.00000000
Si      -1.59280362      -1.76494005       0.03623702       0.00000000
Si      -1.13308353       1.75345560      -1.15408068       0.00000000
Si       2.12817447      -0.26376768      -1.05118122       0.00000000
Si       1.36581876       3.09909105       0.27447833       0.00000000
Si       1.34799750      -1.01478555      -3.17815749       0.00000000
Si       3.00726432       1.92963195      -0.88838812       0.00000000
Si      -0.80672967      -3.51370413      -1.30778034       0.00000000
Si      -1.42555419      -2.92371291       2.09053414       0.00000000
Si      -2.97162180       2.53848699       0.04813370       0.00000000
