10
Lattice="16.28999089631971 0.0 0.0 0.0 16.28999089631971 0.0 0.0 0.0 34.185847837958455" Properties=species:S:1:pos:R:3:initial_magmoms:R:1 pbc="T T T"
Si      -0.54817479      -1.33478631      -1.84063545       0.00000000
Si      -1.71224190       0.95939955       1.32032655       0.00000000
Si       1.43819523      -1.16639658       1.61282083       0.00000000
Si       0.81764397       1.76430474      -1.56615712       0.00000000
Si      -1.68125832       0.41866929      -2.99471613       0.00000000
Si       1.57999968      -1.59855399      -2.89181667       0.00000000
Si       2.98804051       0.64127214       2.06739030       0.00000000
Si       2.45908953       0.59484564      -2.72902357       0.00000000
Si      -3.00314295      -0.92470185       2.13959085       0.00000000
Si      -2.87002107       2.55155157      -0.00823879       0.00000000
