10
Lattice="16.28999089631971 0.0 0.0 0.0 16.28999089631971 0.0 0.0 0.0 34.185847837958455" Properties=species:S:1:pos:R:3:initial_magmoms:R:1 pbc="T T T"
Si      -1.33121880      -1.36259334       1.37311637       0.00000000
Si       1.17524205      -1.56545271      -1.32078123       0.00000000
Si       1.38694689       1.34999207       1.37773146       0.00000000
Si      -1.58081418       1.24311501      -1.45773665       0.00000000
Si      -2.69021205       2.71227590       0.01821081       0.00000000
Si      -2.69084736      -0.00972345       2.73432922       0.00000000
Si       2.74317470       2.68262810       0.02065852       0.00000000
Si      -2.70197343      -2.73300588      -0.00478944       0.00000000
Si       0.02492370       2.70597167       2.73576503       0.00000000
Si      -0.43077276      -2.38759272      -2.99335694       0.00000000
