10
Lattice="16.28999089631971 0.0 0.0 0.0 16.28999089631971 0.0 0.0 0.0 34.185847837958455" Properties=species:S:1:pos:R:3:initial_magmoms:R:1 pbc="T T T"
Si      -1.34412048      -1.32416523       1.37720158       0.00000000
Si      -1.55437551       1.19130399      -1.32578945       0.00000000
Si       1.36742562       1.39287645       1.36807395       0.00000000
Si       1.25378007      -1.47777993      -1.49358395       0.00000000
Si       0.29315388       2.23233273      -2.54028648       0.00000000
Si       2.19086558       0.45181944      -2.56362756       0.00000000
Si      -2.67123420      -2.69112429      -0.00566118       0.00000000
Si       2.72037203      -2.67558363      -0.00215713       0.00000000
Si       0.00813899      -2.67973758       2.72867146       0.00000000
Si      -2.70435177       0.03075552       2.72867146       0.00000000
