10
Lattice="16.28999089631971 0.0 0.0 0.0 16.28999089631971 0.0 0.0 0.0 34.185847837958455" Properties=species:S:1:pos:R:3:initial_magmoms:R:1 pbc="T T T"
Si       1.35526623       1.35689823      -1.35683706       0.00000000
Si       1.35797724      -1.35698958       1.35721310       0.00000000
Si      -1.35734796       1.35792264       1.35724729       0.00000000
Si      -1.35734796      -1.36001952      -1.35851217       0.00000000
Si       0.00288333      -2.71494027      -2.70998204       0.00000000
Si       2.71432681      -0.00213399       2.71316133       0.00000000
Si      -2.71490769      -0.00131949       2.71422109       0.00000000
Si      -0.00149868      -2.71458189       2.71456295       0.00000000
Si      -2.71435383      -2.71492398       0.00027349       0.00000000
Si       2.71496700      -2.71497285      -0.00006837       0.00000000
