10
Lattice="16.28999089631971 0.0 0.0 0.0 16.28999089631971 0.0 0.0 0.0 34.185847837958455" Properties=species:S:1:pos:R:3:initial_magmoms:R:1 pbc="T T T"
Si       1.94006732      -1.22303691      -0.45932131       0.00000000
Si       0.08702607       1.43578431       1.84996819       0.00000000
Si      -0.79242446       1.30714218      -1.79021129       0.00000000
Si      -1.42817429      -1.83842424       0.55152059       0.00000000
Si      -2.76243932       1.83013263      -0.66669278       0.00000000
Si      -0.19341931      -0.27117963      -3.41899692       0.00000000
Si      -0.91362206      -0.09094707       3.32997693       0.00000000
Si      -1.98226235       2.58115050       1.46028349       0.00000000
Si       1.24585268      -3.44882106      -0.67783737       0.00000000
Si      -2.88551027      -2.08593450      -1.31882237       0.00000000
