10
Lattice="16.28999089631971 0.0 0.0 0.0 16.28999089631971 0.0 0.0 0.0 34.185847837958455" Properties=species:S:1:pos:R:3:initial_magmoms:R:1 pbc="T T T"
Si      -1.09431333       1.21226922       1.69110647       0.00000000
Si      -0.61774938      -2.25205992      -0.53384650       0.00000000
Si       2.30288472      -0.23320764       0.74480748       0.00000000
Si      -0.50712399       1.46605113      -1.90247768       0.00000000
Si       0.46014363      -1.94220783      -2.63518337       0.00000000
Si      -0.73536318      -0.13563054      -3.61508706       0.00000000
Si      -1.41677388       3.39736095       0.69246892       0.00000000
Si      -3.26814704       0.28968507       1.90504162       0.00000000
Si       3.37375674       1.84726971       0.39112050       0.00000000
Si       0.09935271      -3.73250978       1.18689911       0.00000000
