10
Lattice="16.28999089631971 0.0 0.0 0.0 16.28999089631971 0.0 0.0 0.0 34.185847837958455" Properties=species:S:1:pos:R:3:initial_magmoms:R:1 pbc="T T T"
Si       0.93708551       1.92959937      -1.07004362       0.00000000
Si       1.46659196      -1.19780370       1.49142682       0.00000000
Si      -1.25378007       1.47777993       1.49358395       0.00000000
Si      -0.90635605      -1.79102034      -1.69519650       0.00000000
Si      -2.46181389      -2.72297124      -0.05624259       0.00000000
Si       1.21111589       1.34545626      -3.33034070       0.00000000
Si       0.11512469      -2.56170024       2.86165790       0.00000000
Si       2.85419045      -2.60824077       0.17921941       0.00000000
Si      -2.59790055       0.15361470       2.87078553       0.00000000
Si      -2.80815558       2.66908392       0.16779449       0.00000000
