10
Lattice="16.28999089631971 0.0 0.0 0.0 16.28999089631971 0.0 0.0 0.0 34.185847837958455" Properties=species:S:1:pos:R:3:initial_magmoms:R:1 pbc="T T T"
Si      -1.35749131      -1.35684297       1.35881984       0.00000000
Si       1.35725022       1.35777150       1.35864891       0.00000000
Si      -1.35718506       1.35742941      -1.36063169       0.00000000
Si       1.36021500      -1.36329381      -1.35615334       0.00000000
Si       2.72520297       0.00614133      -2.69779478       0.00000000
Si      -2.69511941      -0.02101410      -2.72984061       0.00000000
Si       2.71381626      -2.71456560       0.00150418       0.00000000
Si       2.71386513       2.71458189       0.00133325       0.00000000
Si      -0.00039096      -2.71450044       2.71610131       0.00000000
Si       2.71505430       0.00070047       2.71586201       0.00000000
