10
Lattice="16.28999089631971 0.0 0.0 0.0 16.28999089631971 0.0 0.0 0.0 34.185847837958455" Properties=species:S:1:pos:R:3:initial_magmoms:R:1 pbc="T T T"
Si       1.29816639      -0.14706612      -1.97361847       0.00000000
Si       1.42667820       1.29476178       1.37492138       0.00000000
Si      -2.08049038       1.01986803      -0.52964164       0.00000000
Si      -0.52414704      -2.31300081       0.45296274       0.00000000
Si      -1.59146784       1.04550849      -2.91000355       0.00000000
Si       3.12399846      -0.25194114       1.63818674       0.00000000
Si      -2.53216321      -2.36631798      -0.87748283       0.00000000
Si      -3.67995077      -0.49751289       0.28996452       0.00000000
Si       2.22330807       2.99242413      -0.09510508       0.00000000
Si       2.24283978      -2.42532036      -1.78771573       0.00000000
