10
Lattice="16.28999089631971 0.0 0.0 0.0 16.28999089631971 0.0 0.0 0.0 34.185847837958455" Properties=species:S:1:pos:R:3:initial_magmoms:R:1 pbc="T T T"
Si      -1.97546616       0.01697418      -1.20587227       0.00000000
Si       1.09773097      -1.77091848      -1.04468591       0.00000000
Si       0.17371330      -0.88770726       2.17165720       0.00000000
Si       0.55281418       2.32544637       0.08666117       0.00000000
Si       2.18012002       0.17594829       2.79195975       0.00000000
Si      -0.78526759      -3.32179164      -0.97898067       0.00000000
Si      -3.61691172       1.18643328      -0.04300582       0.00000000
Si      -2.85455601      -2.17642545      -1.36866537       0.00000000
Si       2.86669465       2.57564448      -0.15701569       0.00000000
Si      -1.44651518       0.06340068       3.59054160       0.00000000
