10
Lattice="16.28999089631971 0.0 0.0 0.0 16.28999089631971 0.0 0.0 0.0 34.185847837958455" Properties=species:S:1:pos:R:3:initial_magmoms:R:1 pbc="T T T"
Si      -1.35916320       1.35479682       1.36227261       0.00000000
Si       1.35796372      -1.36146933       1.36131541       0.00000000
Si       1.38539608       1.35481559      -1.34953154       0.00000000
Si      -1.36742562      -1.39287645      -1.36807395       0.00000000
Si      -0.01030180       2.63176257      -2.71310321       0.00000000
Si       2.67111691      -0.05602131      -2.74528579       0.00000000
Si      -2.71009629       2.71387232       0.00464928       0.00000000
Si      -2.71154610      -2.71704168       0.00912763       0.00000000
Si       2.71715245       2.71205109       0.00317929       0.00000000
Si       2.71711987      -2.71396287       0.00714485       0.00000000
