10
Lattice="16.28999089631971 0.0 0.0 0.0 16.28999089631971 0.0 0.0 0.0 34.185847837958455" Properties=species:S:1:pos:R:3:initial_magmoms:R:1 pbc="T T T"
Si      -1.35634957      -1.35485559      -1.35594823       0.00000000
Si       1.35747991      -1.35299853       1.35830705       0.00000000
Si      -1.35280861       1.35743490       1.36223843       0.00000000
Si       1.35853876       1.35982854      -1.35567474       0.00000000
Si       2.71383418      -2.71202436       0.00218790       0.00000000
Si       0.00064020      -2.71283886      -2.71322970       0.00000000
Si      -2.71432681       0.00213399      -2.71316133       0.00000000
Si      -2.71582549      -2.71244790       0.00140162       0.00000000
Si       2.71595188       0.00278559      -2.71309296       0.00000000
Si       2.71406224       2.71672632       0.00160674       0.00000000
