10
Lattice="16.28999089631971 0.0 0.0 0.0 16.28999089631971 0.0 0.0 0.0 34.185847837958455" Properties=species:S:1:pos:R:3:initial_magmoms:R:1 pbc="T T T"
Si      -1.44303403       1.27516491       1.31584820       0.00000000
Si      -1.35835861      -1.35513252      -1.35300824       0.00000000
Si       1.35225571       1.36337526      -1.35663194       0.00000000
Si       1.36044958      -1.37419182       1.44801077       0.00000000
Si      -0.65340982      -2.03470245       2.73828794       0.00000000
Si      -2.42932837      -0.29388789       2.77924261       0.00000000
Si      -0.05987878       2.44291356       2.79072906       0.00000000
Si       2.70878917      -2.70638802      -0.01391365       0.00000000
Si       2.70478183       2.71353933       0.02321220       0.00000000
Si       2.70860998       0.00434943      -2.71275110       0.00000000
