10
Lattice="16.28999089631971 0.0 0.0 0.0 16.28999089631971 0.0 0.0 0.0 34.185847837958455" Properties=species:S:1:pos:R:3:initial_magmoms:R:1 pbc="T T T"
Si       1.22178258      -1.34169327      -1.60878690       0.00000000
Si       2.01639249       0.80446114       1.26391987       0.00000000
Si      -1.54287803      -1.61231904       1.15872996       0.00000000
Si      -1.46652843       1.36509778      -1.59972764       0.00000000
Si       2.54127258       2.68355663      -0.22340464       0.00000000
Si       2.54687634      -2.74769946      -0.19872244       0.00000000
Si       3.52683387      -1.19176011       1.26080896       0.00000000
Si      -2.99467934       2.55098861      -0.23865154       0.00000000
Si       2.58515784       0.02160054      -2.98616966       0.00000000
Si      -0.13074354      -2.69185734      -2.98863105       0.00000000
