10
Lattice="16.28999089631971 0.0 0.0 0.0 16.28999089631971 0.0 0.0 0.0 34.185847837958455" Properties=species:S:1:pos:R:3:initial_magmoms:R:1 pbc="T T T"
Si       1.94064399      -0.59140845      -1.15059372       0.00000000
Si      -0.75838421       1.87501158      -1.28087606       0.00000000
Si      -0.48902254      -0.02564046       2.38036192       0.00000000
Si      -1.35191525      -2.60260443      -1.33331718       0.00000000
Si       2.88963423      -1.19257461       0.93638508       0.00000000
Si       0.66194415      -1.94209380      -2.62359436       0.00000000
Si       1.59146784      -1.04550849       2.91000355       0.00000000
Si      -3.12783380      -0.86178987      -1.29236251       0.00000000
Si      -2.14153946       0.70726293      -2.75575692       0.00000000
Si      -2.74281965       2.56269393      -0.06519245       0.00000000
