10
Lattice="16.28999089631971 0.0 0.0 0.0 16.28999089631971 0.0 0.0 0.0 34.185847837958455" Properties=species:S:1:pos:R:3:initial_magmoms:R:1 pbc="T T T"
Si      -0.02043092       2.22101118       0.74846537       0.00000000
Si      -1.59946038      -1.51738092       0.81960616       0.00000000
Si       2.08049038      -1.01986803       0.52964164       0.00000000
Si       0.48902254       0.02564046      -2.38036192       0.00000000
Si      -0.45167283      -3.38618601      -0.34784120       0.00000000
Si       2.16826090       3.00798108      -0.04539883       0.00000000
Si      -0.35721201       2.09813571       3.11070878       0.00000000
Si       1.55634334      -3.33286884       0.98260437       0.00000000
Si       3.37865677      -1.16693415      -1.44397683       0.00000000
Si      -1.86111036       3.36974940      -0.29837425       0.00000000
