10
Lattice="16.28999089631971 0.0 0.0 0.0 16.28999089631971 0.0 0.0 0.0 34.185847837958455" Properties=species:S:1:pos:R:3:initial_magmoms:R:1 pbc="T T T"
Si       2.31388047       0.25019811      -0.24367686       0.00000000
Si      -0.91105246       1.74659751      -1.29861853       0.00000000
Si      -0.55281418      -2.32544637      -0.08666117       0.00000000
Si      -0.60430036       0.84725919       2.15500868       0.00000000
Si      -2.52828035      -2.30847219      -1.29253344       0.00000000
Si      -2.74016438       2.44120311       0.09948087       0.00000000
Si       1.20471066       0.08014680       3.47543779       0.00000000
Si      -1.05695059       3.12153867       1.67674840       0.00000000
Si       3.22704900      -1.47716091       1.07367552       0.00000000
Si      -0.02575449       3.73617733      -0.34729422       0.00000000
