10
Lattice="10.86 0.0 0.0 0.0 10.86 0.0 0.0 0.0 10.86" Properties=species:S:1:pos:R:3:initial_magmoms:R:1 pbc="T T T"
Si       1.20936960       1.15274556      -1.42376772       0.00000000
Si       1.15079076      -1.67781570       1.37271486       0.00000000
Si      -1.20051870      -1.71034140      -1.52832780       0.00000000
Si       2.58135684       2.50571694       0.06863520       0.00000000
Si      -0.13364316       2.50571694      -2.64636480       0.00000000
Si       2.58135684      -0.20928306      -2.64636480       0.00000000
Si      -2.73790374       2.52353820       0.04660026       0.00000000
Si       2.58135684      -0.20928306       2.78363520       0.00000000
Si      -2.84864316      -0.20928306      -2.64636480       0.00000000
Si       2.58135684      -2.92428306       0.06863520       0.00000000
