10
Lattice="10.86 0.0 0.0 0.0 10.86 0.0 0.0 0.0 10.86" Properties=species:S:1:pos:R:3:initial_magmoms:R:1 pbc="T T T"
Si       1.27162998       1.31412516       1.21133526       0.00000000
Si      -1.44337002      -1.40087484       1.21133526       0.00000000
Si      -1.44337002       1.31412516      -1.50366474       0.00000000
Si       2.43685368      -2.34423960      -0.32162976       0.00000000
Si       2.62912998      -0.04337484       2.56883526       0.00000000
Si       0.76932240      -2.72064720      -2.36057304       0.00000000
Si      -0.08587002       2.67162516       2.56883526       0.00000000
Si       2.73787116       2.55452178      -0.38596440       0.00000000
Si      -0.08587002      -2.75837484       2.56883526       0.00000000
Si      -2.80087002      -0.04337484       2.56883526       0.00000000
