10
Lattice="10.86 0.0 0.0 0.0 10.86 0.0 0.0 0.0 10.86" Properties=species:S:1:pos:R:3:initial_magmoms:R:1 pbc="T T T"
Si       1.41467790       1.11547404       1.27755954       0.00000000
Si      -1.30032210       1.11547404      -1.43744046       0.00000000
Si      -1.30032210      -1.59952596       1.27755954       0.00000000
Si       1.55826882      -1.60322922      -1.24457772       0.00000000
Si       0.05717790       2.47297404       2.63505954       0.00000000
Si      -2.65782210       2.47297404      -0.07994046       0.00000000
Si       2.77217790       2.47297404      -0.07994046       0.00000000
Si       0.05717790       2.47297404      -2.79494046       0.00000000
Si      -2.65782210      -0.24202596       2.63505954       0.00000000
Si       2.88091908      -0.35912934       2.39525988       0.00000000
