10
Lattice="10.86 0.0 0.0 0.0 10.86 0.0 0.0 0.0 10.86" Properties=species:S:1:pos:R:3:initial_magmoms:R:1 pbc="T T T"
Si       1.34881200      -1.34881200      -1.47799170       0.00000000
Si      -1.57623126       1.57623126      -1.45308972       0.00000000
Si       2.57063802      -2.57063802      -0.04033404       0.00000000
Si       2.57063802       0.14436198       2.67466596       0.00000000
Si      -0.14436198      -2.57063802       2.67466596       0.00000000
Si       2.57063802       0.14436198      -2.75533404       0.00000000
Si      -0.14436198      -2.57063802      -2.75533404       0.00000000
Si       2.57063802       2.85936198      -0.04033404       0.00000000
Si      -2.85936198      -2.57063802      -0.04033404       0.00000000
Si      -0.14436198       2.85936198       2.67466596       0.00000000
