10
Lattice="10.86 0.0 0.0 0.0 10.86 0.0 0.0 0.0 10.86" Properties=species:S:1:pos:R:3:initial_magmoms:R:1 pbc="T T T"
Si      -1.25853282       1.42105272       1.11905784       0.00000000
Si       1.45646718      -1.29394728       1.11905784       0.00000000
Si      -1.25853282      -1.29394728      -1.59594216       0.00000000
Si      -2.61603282       0.06355272       2.47655784       0.00000000
Si       0.09896718      -2.65144728       2.47655784       0.00000000
Si       0.09896718       2.77855272       2.47655784       0.00000000
Si      -2.61603282      -2.65144728      -0.23844216       0.00000000
Si       2.81396718       0.06355272       2.47655784       0.00000000
Si      -2.61603282       2.77855272      -0.23844216       0.00000000
Si       2.81396718      -2.65144728      -0.23844216       0.00000000
