10
Lattice="10.86 0.0 0.0 0.0 10.86 0.0 0.0 0.0 10.86" Properties=species:S:1:pos:R:3:initial_magmoms:R:1 pbc="T T T"
Si       1.16665722       1.36513458      -1.45759662       0.00000000
Si      -1.54834278       1.36513458       1.25740338       0.00000000
Si      -1.54834278      -1.34986542      -1.45759662       0.00000000
Si       2.52415722       2.72263458      -0.10009662       0.00000000
Si       2.62707744      -2.70257616      -0.10288764       0.00000000
Si      -0.19084278       2.72263458       2.61490338       0.00000000
Si       2.52415722       0.00763458      -2.81509662       0.00000000
Si       2.68522188       0.19765200       2.74112916       0.00000000
Si      -2.90584278       0.00763458       2.61490338       0.00000000
Si      -0.19084278      -2.70736542      -2.81509662       0.00000000
