10
Lattice="10.86 0.0 0.0 0.0 10.86 0.0 0.0 0.0 10.86" Properties=species:S:1:pos:R:3:initial_magmoms:R:1 pbc="T T T"
Si      -1.05671058       1.31527632      -1.13695512       0.00000000
Si       1.33067580      -1.36510200      -1.20155040       0.00000000
Si       1.33067580       1.34989800       1.51344960       0.00000000
Si      -1.38432420      -1.36510200       1.51344960       0.00000000
Si      -2.60625882      -0.02204580      -2.60697558       0.00000000
Si       2.77338336       0.08837868      -2.43741840       0.00000000
Si      -0.02682420      -2.72260200      -2.55905040       0.00000000
Si       2.68817580      -2.72260200       0.15594960       0.00000000
Si      -2.74182420      -2.72260200       0.15594960       0.00000000
Si      -2.89524342       2.58147630       0.09577434       0.00000000
