10
Lattice="16.28999089631971 0.0 0.0 0.0 16.28999089631971 0.0 0.0 0.0 34.45770212530097" Properties=species:S:1:pos:R:3:initial_magmoms:R:1 pbc="T T T"
Si      -1.35648459       1.35611318       1.36063204       0.00000000
Si       1.36005210      -1.36071010       1.35966723       0.00000000
Si      -1.36112724      -1.36815442      -1.36469116       0.00000000
Si       1.37508777       1.36730441      -1.37131394       0.00000000
Si      -2.62509278       0.09018796      -2.74833752       0.00000000
Si      -2.71322168       2.71311905       0.00747733       0.00000000
Si       2.71621089       2.71308647       0.00354915       0.00000000
Si      -2.71409156      -2.71553064       0.00534095       0.00000000
Si      -2.71236156      -0.00186846       2.71830072       0.00000000
Si       0.00223173       2.71346114       2.71802506       0.00000000
