10
Lattice="16.28999089631971 0.0 0.0 0.0 16.28999089631971 0.0 0.0 0.0 34.45770212530097" Properties=species:S:1:pos:R:3:initial_magmoms:R:1 pbc="T T T"
Si       1.78577496       0.89606403      -1.06022963       0.00000000
Si       0.59823396      -1.02393401       1.92684132       0.00000000
Si      -1.07355987      -1.74544811      -1.00578643       0.00000000
Si      -2.28982014      -0.32834287      -2.40528678       0.00000000
Si       0.43624620       2.37156336      -2.39653452       0.00000000
Si       0.06424776       0.66515328       3.48908549       0.00000000
Si      -0.82600074      -3.07959911       1.98876185       0.00000000
Si      -3.59572917       0.95390982      -0.87794828       0.00000000
Si      -2.60514730       2.73253347       0.64746058       0.00000000
Si       3.47415201       1.66648329       0.33851265       0.00000000
