10
Lattice="16.28999089631971 0.0 0.0 0.0 16.28999089631971 0.0 0.0 0.0 34.45770212530097" Properties=species:S:1:pos:R:3:initial_magmoms:R:1 pbc="T T T"
Si      -1.68837705      -0.77041926      -1.39874228       0.00000000
Si       1.80437814      -1.63163898       0.02539534       0.00000000
Si       0.89257797       1.81291410      -1.37296791       0.00000000
Si      -0.33026346      -2.03199016      -2.75051869       0.00000000
Si      -1.41323895       2.31824619       2.13379440       0.00000000
Si       1.06510536       2.82370860       2.03558989       0.00000000
Si       2.39386437       0.69540381      -2.74631485       0.00000000
Si       2.60755659       2.63770938       0.00396264       0.00000000
Si       0.96808212      -3.42618515      -1.29812574       0.00000000
Si       1.39935987      -2.94331304       1.99492978       0.00000000
