10
Lattice="16.28999089631971 0.0 0.0 0.0 16.28999089631971 0.0 0.0 0.0 34.45770212530097" Properties=species:S:1:pos:R:3:initial_magmoms:R:1 pbc="T T T"
Si       1.50128640      -1.11751029      -1.37334694       0.00000000
Si       1.71497862       0.82479528       1.37693055       0.00000000
Si      -1.22813568       1.61694540      -1.34784823       0.00000000
Si      -0.89257797      -1.81291410       1.37296791       0.00000000
Si       0.17252739       1.01079450       3.40855780       0.00000000
Si      -2.58095502      -2.58333336      -0.02577438       0.00000000
Si       0.12948921      -2.45355093      -2.72932720       0.00000000
Si      -2.59335171       0.26389800      -2.72763877       0.00000000
Si       2.85614199      -2.46905901       0.15447396       0.00000000
Si       2.62273887       2.75916762       0.09617150       0.00000000
