10
Lattice="16.28999089631971 0.0 0.0 0.0 16.28999089631971 0.0 0.0 0.0 34.45770212530097" Properties=species:S:1:pos:R:3:initial_magmoms:R:1 pbc="T T T"
Si      -1.01678922      -2.08560870      -0.10785267       0.00000000
Si       2.18375595      -0.47819295       0.69556356       0.00000000
Si      -0.23126913       0.33373323      -2.33347689       0.00000000
Si      -1.10139948       1.59586614       1.36300963       0.00000000
Si      -3.12508989      -1.32690195      -0.97866820       0.00000000
Si       2.07374958       0.35468217       2.90261508       0.00000000
Si       0.30854889       1.89594423       3.25653033       0.00000000
Si      -0.86270211       3.67831458       0.23069444       0.00000000
Si       1.20436857       2.07834336      -2.93976050       0.00000000
Si       0.10606419      -3.36478095      -1.78032709       0.00000000
