10
Lattice="16.28999089631971 0.0 0.0 0.0 16.28999089631971 0.0 0.0 0.0 34.45770212530097" Properties=species:S:1:pos:R:3:initial_magmoms:R:1 pbc="T T T"
Si       0.73506996      -1.81372860       1.30849751       0.00000000
Si       1.93490991       1.30987890       0.44484918       0.00000000
Si      -1.93315059       0.74106468       1.23045077       0.00000000
Si      -0.78745860      -0.87775407      -2.11542843       0.00000000
Si      -3.43068703      -0.78711651       0.37369399       0.00000000
Si       1.21243212       2.53604349       2.32489692       0.00000000
Si      -3.11509923      -0.55198665      -1.92081122       0.00000000
Si       1.33428132      -0.75098529       3.44008661       0.00000000
Si       2.95430553      -2.31384789       0.66958244       0.00000000
Si       3.66878493      -0.13667310       1.04217378       0.00000000
