10
Lattice="16.28999089631971 0.0 0.0 0.0 16.28999089631971 0.0 0.0 0.0 34.45770212530097" Properties=species:S:1:pos:R:3:initial_magmoms:R:1 pbc="T T T"
Si      -1.39518963       0.87102630      -1.69263219       0.00000000
Si      -0.58112946      -2.22459498      -0.62361584       0.00000000
Si      -0.92352897       0.56681055       2.12769538       0.00000000
Si       2.26543401       0.68720994       0.43220320       0.00000000
Si      -1.92612960      -2.78601354       1.24133941       0.00000000
Si      -0.55395774       3.09138588      -1.86705718       0.00000000
Si      -2.69369811      -0.90800460       2.38723094       0.00000000
Si       3.48957864      -1.22541525       0.94614011       0.00000000
Si      -3.72488769       0.59535063      -1.05957493       0.00000000
Si       0.77449176       0.75916287       3.76726268       0.00000000
