10
Lattice="16.28999089631971 0.0 0.0 0.0 16.28999089631971 0.0 0.0 0.0 34.45770212530097" Properties=species:S:1:pos:R:3:initial_magmoms:R:1 pbc="T T T"
Si      -1.77016914      -1.47481515       0.25953556       0.00000000
Si       1.69802073       0.19235232       1.63956730       0.00000000
Si      -1.31668812       1.92650427       0.44567617       0.00000000
Si       0.92352897      -0.56681055      -2.12769538       0.00000000
Si       3.24689022       1.41724629       0.33100087       0.00000000
Si      -3.47787102      -0.30540492      -0.89414341       0.00000000
Si      -1.00260063      -3.35282409      -0.88635597       0.00000000
Si       3.18896298       0.12039939      -1.69549218       0.00000000
Si      -1.73757285       1.54994463       2.77587958       0.00000000
Si       0.48935160       1.02353328       3.51248229       0.00000000
