10
Lattice="16.28999089631971 0.0 0.0 0.0 16.28999089631971 0.0 0.0 0.0 34.45770212530097" Properties=species:S:1:pos:R:3:initial_magmoms:R:1 pbc="T T T"
Si       0.70115418       1.70767974      -1.49728934       0.00000000
Si      -1.37147139       1.31722343       1.44238988       0.00000000
Si       1.36202319      -1.39426110       1.41626059       0.00000000
Si      -1.45117836      -1.61147196      -1.87384332       0.00000000
Si      -1.19052207       0.60437529      -3.05071233       0.00000000
Si      -2.68505138      -2.56209120      -0.03285544       0.00000000
Si       2.68397298       2.62454773       0.00200544       0.00000000
Si      -2.63543693       2.77556580       0.05874352       0.00000000
Si      -0.01034415       2.68537785       2.80708104       0.00000000
Si       2.71042794      -0.03057633       2.80966537       0.00000000
