10
Lattice="16.28999089631971 0.0 0.0 0.0 16.28999089631971 0.0 0.0 0.0 34.45770212530097" Properties=species:S:1:pos:R:3:initial_magmoms:R:1 pbc="T T T"
Si      -0.09426371      -2.00096586       1.13083350       0.00000000
Si       0.51765059      -0.40703823      -2.21911171       0.00000000
Si       1.42031533       1.18052001       1.40391094       0.00000000
Si      -1.98736438       1.26306144      -0.18266038       0.00000000
Si      -0.00401386       1.76063949      -3.06863238       0.00000000
Si       1.49925667       3.22452405       0.21070897       0.00000000
Si      -1.44855634      -1.50824875      -3.03517393       0.00000000
Si       0.22113838       0.96027921       3.62267808       0.00000000
Si      -1.52922442      -1.84240714       2.97363244       0.00000000
Si      -1.04704042      -3.67012790      -0.19520299       0.00000000
