10
Lattice="16.28999089631971 0.0 0.0 0.0 16.28999089631971 0.0 0.0 0.0 34.45770212530097" Properties=species:S:1:pos:R:3:initial_magmoms:R:1 pbc="T T T"
Si       1.09393866       0.34932276       2.02663088       0.00000000
Si       0.47262177      -2.16441972      -0.81489065       0.00000000
Si      -2.36395593       0.26497314       0.26894252       0.00000000
Si       0.80042544       1.14844500      -2.01288225       0.00000000
Si      -1.28451537       2.16580178      -2.16577116       0.00000000
Si      -1.66441446      -2.08687932      -2.06925508       0.00000000
Si      -2.70875007       0.11013669      -2.10385064       0.00000000
Si       0.76185072       2.67447006       2.55786557       0.00000000
Si      -2.76933258       2.47702386       1.01540013       0.00000000
Si       2.91540501      -2.06931870      -1.52458188       0.00000000
