10
Lattice="16.28999089631971 0.0 0.0 0.0 16.28999089631971 0.0 0.0 0.0 34.45770212530097" Properties=species:S:1:pos:R:3:initial_magmoms:R:1 pbc="T T T"
Si      -0.08259030       0.19158669       2.30518710       0.00000000
Si       1.70085519      -1.53671715      -0.52596266       0.00000000
Si       0.28351116       2.23438105      -0.72760924       0.00000000
Si      -1.91914119      -0.66240027      -1.22590235       0.00000000
Si      -0.71863335      -0.07666074      -3.18489273       0.00000000
Si       0.90025056      -3.06657621       1.07335802       0.00000000
Si       1.21741686      -1.55129670      -2.85978413       0.00000000
Si       1.40618538       2.00410561       2.50421490       0.00000000
Si      -1.05072129       2.24848656      -2.65365804       0.00000000
Si      -0.00125433       3.45439943       1.25867165       0.00000000
