10
Lattice="16.28999089631971 0.0 0.0 0.0 16.28999089631971 0.0 0.0 0.0 34.45770212530097" Properties=species:S:1:pos:R:3:initial_magmoms:R:1 pbc="T T T"
Si      -1.69802073      -0.19235232      -1.63956730       0.00000000
Si       1.54886949       1.22489397      -1.30856643       0.00000000
Si       1.57683942      -1.54613277       0.87674226       0.00000000
Si      -1.20866913       0.83118096       1.87291499       0.00000000
Si       3.10190922       0.06639804       1.73890891       0.00000000
Si       1.49094225      -0.07195293      -3.33505948       0.00000000
Si      -3.01470885       1.73415195      -1.19389113       0.00000000
Si       0.24715188       2.35147779       2.91505431       0.00000000
Si      -1.03052169      -1.43573544       3.38853786       0.00000000
Si       0.50810139       3.18620997      -2.10323040       0.00000000
