10
Lattice="16.28999089631971 0.0 0.0 0.0 16.28999089631971 0.0 0.0 0.0 34.45770212530097" Properties=species:S:1:pos:R:3:initial_magmoms:R:1 pbc="T T T"
Si      -1.33449309      -1.34515262       1.36227912       0.00000000
Si       1.28220219      -1.44201296      -1.36192765       0.00000000
Si       1.37896479       1.36872947       1.35966034       0.00000000
Si      -1.36094805       1.30997144      -1.44538081       0.00000000
Si       0.44966916       2.10162309      -2.90077645       0.00000000
Si       2.35626705       0.13701211      -2.80811964       0.00000000
Si      -2.68289784      -2.70883739      -0.03112566       0.00000000
Si      -2.69521308       0.01009146       2.71936202       0.00000000
Si      -2.68017741       2.73810597      -0.01161914       0.00000000
Si       0.02029734      -2.70290783       2.72132611       0.00000000
