10
Lattice="16.28999089631971 0.0 0.0 0.0 16.28999089631971 0.0 0.0 0.0 34.45770212530097" Properties=species:S:1:pos:R:3:initial_magmoms:R:1 pbc="T T T"
Si       0.09426371       2.00096586      -1.13083350       0.00000000
Si      -0.95277671      -1.66916204      -1.32603649       0.00000000
Si      -1.43496071       0.15855871       1.84279894       0.00000000
Si       2.11204737      -0.63829826       0.99172768       0.00000000
Si       1.51457904       3.18148587       0.27307744       0.00000000
Si       0.09975182       0.64172663       3.54046196       0.00000000
Si      -1.30271849      -3.36977288       0.25919098       0.00000000
Si       0.61191430       1.59392763      -3.34994522       0.00000000
Si      -2.58068528      -2.02586417       1.87494799       0.00000000
Si       2.45021148      -2.85655643       0.38248071       0.00000000
