10
Lattice="16.28999089631971 0.0 0.0 0.0 16.28999089631971 0.0 0.0 0.0 34.45770212530097" Properties=species:S:1:pos:R:3:initial_magmoms:R:1 pbc="T T T"
Si       1.35720135      -1.34731821      -1.49829064       0.00000000
Si      -1.35485559       1.35154872      -1.52782091       0.00000000
Si       0.76155750       1.73783349       1.57189233       0.00000000
Si      -1.94434182      -0.97549407       1.24388928       0.00000000
Si      -1.14116337       3.29385429       1.22245658       0.00000000
Si      -2.85614199       2.46905901      -0.15447396       0.00000000
Si       2.67779907       2.69724933       0.05185887       0.00000000
Si       2.77361685      -2.77129457      -0.03742109       0.00000000
Si      -2.78063784      -2.77004024      -0.07963179       0.00000000
Si      -0.01773981      -2.69888298      -2.88245731       0.00000000
