10
Lattice="16.28999089631971 0.0 0.0 0.0 16.28999089631971 0.0 0.0 0.0 34.45770212530097" Properties=species:S:1:pos:R:3:initial_magmoms:R:1 pbc="T T T"
Si       1.84192659       1.03855266      -0.96671137       0.00000000
Si       0.25585074       0.85581144       2.17841715       0.00000000
Si      -1.74967632       0.60481512      -1.47913215       0.00000000
Si      -0.03474657      -2.39081814       0.03104641       0.00000000
Si      -1.76891481       0.50225328       3.17042049       0.00000000
Si      -0.49765950       1.10864853      -3.49142862       0.00000000
Si      -2.19862872      -2.89493988       0.81154825       0.00000000
Si       1.04581800       2.59765227      -2.51665414       0.00000000
Si       2.68268607      -0.43113114      -2.61175745       0.00000000
Si       1.78688268      -0.52937613       3.29102251       0.00000000
