10
Lattice="16.28999089631971 0.0 0.0 0.0 16.28999089631971 0.0 0.0 0.0 34.45770212530097" Properties=species:S:1:pos:R:3:initial_magmoms:R:1 pbc="T T T"
Si       0.32174379      -0.80643482      -2.21180668       0.00000000
Si       0.51378660       2.33552011      -0.07356724       0.00000000
Si       1.44272385      -0.64700459       1.81871299       0.00000000
Si      -2.34905058      -0.26031909       0.67878265       0.00000000
Si      -1.30784265       0.47407810      -3.33354334       0.00000000
Si      -2.05812747      -0.20017478       3.00474776       0.00000000
Si       0.52888743       2.79338314       2.32593065       0.00000000
Si      -0.11772783      -1.64416666       3.30694198       0.00000000
Si       3.24967581      -1.73047108       0.71265459       0.00000000
Si       0.23312619      -3.16527799      -2.23217119       0.00000000
