10
Lattice="16.28999089631971 0.0 0.0 0.0 16.28999089631971 0.0 0.0 0.0 34.45770212530097" Properties=species:S:1:pos:R:3:initial_magmoms:R:1 pbc="T T T"
Si       1.35498591      -1.35716877      -1.35670386       0.00000000
Si      -1.35837423       1.35816246      -1.35680724       0.00000000
Si      -1.33983621      -1.37805255       1.35901253       0.00000000
Si       1.36014984       1.35850455       1.38833605       0.00000000
Si      -0.21838374       2.49862536       2.82853098       0.00000000
Si      -2.71163340      -2.71409319       0.00303228       0.00000000
Si       2.71366965       0.00123804      -2.71316652       0.00000000
Si       2.71487511      -2.71228500       0.00441059       0.00000000
Si      -0.00122175      -2.71376739      -2.71351110       0.00000000
Si      -2.71568961       0.00096111      -2.71368339       0.00000000
