10
Lattice="16.28999089631971 0.0 0.0 0.0 16.28999089631971 0.0 0.0 0.0 34.45770212530097" Properties=species:S:1:pos:R:3:initial_magmoms:R:1 pbc="T T T"
Si      -1.35731538      -1.35720135      -1.35687615       0.00000000
Si       1.35738054       1.35806472      -1.35691061       0.00000000
Si       1.35837423      -1.35816246       1.35680724       0.00000000
Si      -1.35734796       1.36119240       1.36087325       0.00000000
Si      -0.00050499      -2.71441899      -2.71426917       0.00000000
Si       2.71336014      -2.71533123       0.00010337       0.00000000
Si       2.71448415       0.00078192      -2.71423471       0.00000000
Si       2.71507059       2.71394658       0.00027566       0.00000000
Si      -0.00006516       2.71536381      -2.71409688       0.00000000
Si      -2.71531494       0.00086337      -2.71440700       0.00000000
