10
Lattice="16.28999089631971 0.0 0.0 0.0 16.28999089631971 0.0 0.0 0.0 34.45770212530097" Properties=species:S:1:pos:R:3:initial_magmoms:R:1 pbc="T T T"
Si      -1.35711990       1.35668007       1.36028747       0.00000000
Si       1.35668007      -1.35827649       1.36083879       0.00000000
Si       1.35242838       1.37018448      -1.36224122       0.00000000
Si      -1.37758014      -1.36339155      -1.36529417       0.00000000
Si       0.03777651      -2.66610285      -2.75442275       0.00000000
Si       2.71476108       2.71318095       0.00509974       0.00000000
Si      -2.71548273       2.71249677      -0.00258433       0.00000000
Si       2.71261080      -2.71583622       0.00282553       0.00000000
Si       2.71404432      -0.00052128       2.71719808       0.00000000
Si      -0.00057015       2.71399545       2.71771494       0.00000000
