10
Lattice="16.28999089631971 0.0 0.0 0.0 16.28999089631971 0.0 0.0 0.0 34.45770212530097" Properties=species:S:1:pos:R:3:initial_magmoms:R:1 pbc="T T T"
Si      -0.37670625      -1.34874684      -1.84838109       0.00000000
Si       1.54583955      -1.34135118       1.13826779       0.00000000
Si      -1.44218628       1.51560531       1.08345727       0.00000000
Si       0.93600711       1.60285455      -1.64490825       0.00000000
Si       1.82301390      -0.46946151      -2.32258825       0.00000000
Si      -2.43572967      -0.25415658       2.24605562       0.00000000
Si       0.39172563       2.48474628       2.37743947       0.00000000
Si       2.83367808      -1.96887456      -0.69683850       0.00000000
Si      -1.78491159       0.09179415      -3.04647606       0.00000000
Si      -1.33907058       2.31231663      -2.32620631       0.00000000
