10
Lattice="16.28999089631971 0.0 0.0 0.0 16.28999089631971 0.0 0.0 0.0 34.45770212530097" Properties=species:S:1:pos:R:3:initial_magmoms:R:1 pbc="T T T"
Si      -1.39744423      -1.36987497       1.33418122       0.00000000
Si       1.25520701       1.52945181       1.32434354       0.00000000
Si       1.87030438      -0.26880129      -1.59509866       0.00000000
Si      -1.88866918       0.30843486      -1.61105259       0.00000000
Si       1.08546195       1.74244356      -2.63120788       0.00000000
Si      -1.04199643      -1.21151988      -3.15868668       0.00000000
Si      -1.24270552       2.46036015      -2.27942901       0.00000000
Si       0.02133332      -2.55995721       2.72066345       0.00000000
Si       1.18739011      -2.16513648      -2.87727047       0.00000000
Si      -2.71572877       0.15881121       2.68052709       0.00000000
