10
Lattice="16.28999089631971 0.0 0.0 0.0 16.28999089631971 0.0 0.0 0.0 34.45770212530097" Properties=species:S:1:pos:R:3:initial_magmoms:R:1 pbc="T T T"
Si      -1.35654975       1.35692442      -1.35711736       0.00000000
Si       1.35635427       1.35703845       1.35753085       0.00000000
Si       1.35812988      -1.35786924      -1.35742748       0.00000000
Si      -1.35938421      -1.35917244       1.35732410       0.00000000
Si      -0.00040725      -2.71248048      -2.71478604       0.00000000
Si      -2.71270854       0.00107514       2.71509616       0.00000000
Si      -2.71321353      -0.00055386      -2.71523399       0.00000000
Si      -2.71448415       2.71456560      -0.00020675       0.00000000
Si       0.00079821       2.71551042      -2.71402797       0.00000000
Si       0.00084708      -2.71204065       2.71754265       0.00000000
