10
Lattice="16.28999089631971 0.0 0.0 0.0 16.28999089631971 0.0 0.0 0.0 34.45770212530097" Properties=species:S:1:pos:R:3:initial_magmoms:R:1 pbc="T T T"
Si       0.52921323      -0.34332804       2.29657267       0.00000000
Si       2.06926983       1.02749175      -0.58629813       0.00000000
Si      -0.31451103      -2.16603243      -1.02539287       0.00000000
Si      -2.20894029       1.07403228      -0.27411117       0.00000000
Si       0.82603332      -3.18200715       0.87405456       0.00000000
Si       2.36951082      -1.69300341       1.84882904       0.00000000
Si       1.51721802       3.12595326       0.34619673       0.00000000
Si      -3.64457799      -0.67057785       0.33217243       0.00000000
Si      -2.26947393       2.62666476       1.58260869       0.00000000
Si       0.00983916       2.99612196       2.39153815       0.00000000
