10
Lattice="16.28999089631971 0.0 0.0 0.0 16.28999089631971 0.0 0.0 0.0 34.45770212530097" Properties=species:S:1:pos:R:3:initial_magmoms:R:1 pbc="T T T"
Si      -0.79949691      -1.71597231      -1.34912317       0.00000000
Si      -0.51342822      -1.04762619       2.13820498       0.00000000
Si      -1.31887098       1.62347769      -1.25415769       0.00000000
Si       2.43460566       0.09203850      -0.24592476       0.00000000
Si       1.04080068      -3.06564768      -1.79686680       0.00000000
Si       0.18850788       1.75330899      -3.29949911       0.00000000
Si       3.17400876       0.17518266       2.04027614       0.00000000
Si      -2.55826305      -2.85514830      -0.28448295       0.00000000
Si      -2.66826942      -2.02227318       1.92256856       0.00000000
Si       2.91224475       2.04307551      -1.52616694       0.00000000
