10
Lattice="16.28999089631971 0.0 0.0 0.0 16.28999089631971 0.0 0.0 0.0 34.45770212530097" Properties=species:S:1:pos:R:3:initial_magmoms:R:1 pbc="T T T"
Si      -1.35739683       1.35764118      -1.35715181       0.00000000
Si       1.35770634       1.35661491       1.35787543       0.00000000
Si       1.35791811      -1.35769005      -1.35708290       0.00000000
Si      -1.35887922      -1.35799956       1.35780651       0.00000000
Si       2.71389771       0.00158013      -2.71409688       0.00000000
Si       0.00203625       2.71348516      -2.71461375       0.00000000
Si      -2.71443528       0.00047241      -2.71375231       0.00000000
Si      -2.71443528       2.71461115       0.00010337       0.00000000
Si       0.00063531      -2.71485882      -2.71440700       0.00000000
Si       2.71451673       0.00278559       2.71495833       0.00000000
