10
Lattice="16.28999089631971 0.0 0.0 0.0 16.28999089631971 0.0 0.0 0.0 34.45770212530097" Properties=species:S:1:pos:R:3:initial_magmoms:R:1 pbc="T T T"
Si      -1.35635427      -1.35703845      -1.35753085       0.00000000
Si      -1.35672894       1.35845568       1.35846121       0.00000000
Si       1.35887922       1.35799956      -1.35780651       0.00000000
Si       1.36187658      -1.35711990       1.36221710       0.00000000
Si      -2.69575065      -0.02057427       2.70786003       0.00000000
Si      -2.71290402      -0.00011403      -2.71464821       0.00000000
Si      -2.71507059       2.71397916      -0.00062024       0.00000000
Si       0.00177561      -2.71490769      -2.71495833       0.00000000
Si       0.00148239       2.71564074      -2.71495833       0.00000000
Si       2.71658556       2.71461447       0.00006892       0.00000000
