10
Lattice="16.28999089631971 0.0 0.0 0.0 16.28999089631971 0.0 0.0 0.0 34.45770212530097" Properties=species:S:1:pos:R:3:initial_magmoms:R:1 pbc="T T T"
Si       1.34301276       1.38176667       1.28630674       0.00000000
Si      -1.25107200       1.40802615      -1.35773760       0.00000000
Si       1.46926026      -1.33586145      -1.33702851       0.00000000
Si      -1.89868095      -0.76198104       1.30994474       0.00000000
Si      -2.60332119       0.02971296      -2.71109906       0.00000000
Si      -2.65199571       2.67317271       0.09358717       0.00000000
Si       0.11528433      -2.68586262      -2.70734317       0.00000000
Si      -2.72284092      -2.67688683       0.24234115       0.00000000
Si       0.11090232       2.74432997      -2.70923834       0.00000000
Si       2.82680370       0.03204243      -2.71240845       0.00000000
