10
Lattice="16.28999089631971 0.0 0.0 0.0 16.28999089631971 0.0 0.0 0.0 34.45770212530097" Properties=species:S:1:pos:R:3:initial_magmoms:R:1 pbc="T T T"
Si      -0.17671392       2.31747960       0.09489656       0.00000000
Si      -1.87779717      -1.10843676       0.86127075       0.00000000
Si       1.82865024      -1.02799674       1.15247295       0.00000000
Si      -0.75914658      -0.05333346      -2.41624434       0.00000000
Si       1.53184644      -0.09912465      -3.03217611       0.00000000
Si       0.89314812      -0.45799335       3.31431593       0.00000000
Si       2.12488389       2.80587661      -0.17173728       0.00000000
Si      -1.39435884      -1.09385721       3.19509222       0.00000000
Si       1.75905936      -2.37056967      -2.35770067       0.00000000
Si       2.30418792      -3.01143456      -0.06405690       0.00000000
