10
Lattice="16.28999089631971 0.0 0.0 0.0 16.28999089631971 0.0 0.0 0.0 34.45770212530097" Properties=species:S:1:pos:R:3:initial_magmoms:R:1 pbc="T T T"
Si       1.35599589       1.35799956       1.35725519       0.00000000
Si      -1.35745547       1.35710361      -1.35718627       0.00000000
Si       1.35711990      -1.35734796      -1.35749639       0.00000000
Si      -1.35747176      -1.35866745       1.35773760       0.00000000
Si       0.00175932       2.71404432       2.71165038       0.00000000
Si      -2.71219966      -0.00029322      -2.71426917       0.00000000
Si       2.71516833      -0.00016290      -2.71395905       0.00000000
Si       0.00136836       2.71479366      -2.71451038       0.00000000
Si      -0.00159642      -2.71469592      -2.71488941       0.00000000
Si       2.71479366       2.71492398      -0.00048241       0.00000000
