10
Lattice="16.28999089631971 0.0 0.0 0.0 16.28999089631971 0.0 0.0 0.0 34.45770212530097" Properties=species:S:1:pos:R:3:initial_magmoms:R:1 pbc="T T T"
Si      -1.93951998       1.07486307      -0.79979817       0.00000000
Si       1.96025715       1.19570229       0.63288497       0.00000000
Si      -0.14460633      -0.53918271       2.40947668       0.00000000
Si       0.91523736      -1.21021668      -1.97594357       0.00000000
Si       1.71170433      -2.18263194       2.52185006       0.00000000
Si       2.66694993      -2.53379547      -1.11081356       0.00000000
Si      -3.39534099      -0.44543376      -1.84193750       0.00000000
Si       3.89143665      -0.33050781       0.23693129       0.00000000
Si       0.46268487       1.33951041       3.75272294       0.00000000
Si       1.53674973       2.91853548       2.30653095       0.00000000
