10
Lattice="16.28999089631971 0.0 0.0 0.0 16.28999089631971 0.0 0.0 0.0 34.45770212530097" Properties=species:S:1:pos:R:3:initial_magmoms:R:1 pbc="T T T"
Si      -1.35549090      -1.35660053      -1.35759976       0.00000000
Si       1.35893671      -1.35311975       1.35928819       0.00000000
Si      -1.35454608       1.35967743       1.36045976       0.00000000
Si       1.35936424       1.35816246      -1.35766868       0.00000000
Si      -2.71305063      -2.71498004       0.00017229       0.00000000
Si      -2.71358820       0.00085197      -2.71492387       0.00000000
Si       0.00203625      -2.71432844      -2.71482049       0.00000000
Si      -2.71443528       2.71479366      -0.00065470       0.00000000
Si       0.00192222       2.71622718      -2.71468266       0.00000000
Si       2.71687619       2.71472850       0.00017229       0.00000000
