10
Lattice="16.28999089631971 0.0 0.0 0.0 16.28999089631971 0.0 0.0 0.0 34.45770212530097" Properties=species:S:1:pos:R:3:initial_magmoms:R:1 pbc="T T T"
Si      -0.55021104       0.53969259       2.20222743       0.00000000
Si      -1.85166801      -0.75716313      -1.31201220       0.00000000
Si       1.67612112      -1.80821022      -0.09668837       0.00000000
Si       0.84610490       1.95770288      -1.27255811       0.00000000
Si      -0.58233492      -2.05176201      -2.80723610       0.00000000
Si       2.15201393       0.67545019      -2.79989661       0.00000000
Si       3.36827420      -0.74165505      -1.40039625       0.00000000
Si       0.71812836      -3.46988796      -1.47926998       0.00000000
Si      -3.41091423      -2.04731484      -0.16150334       0.00000000
Si      -1.99909251      -0.94415604       3.32771998       0.00000000
