10
Lattice="16.28999089631971 0.0 0.0 0.0 16.28999089631971 0.0 0.0 0.0 34.45770212530097" Properties=species:S:1:pos:R:3:initial_magmoms:R:1 pbc="T T T"
Si       1.53471252       0.48316792       1.69766302       0.00000000
Si       1.43496071      -0.15855871      -1.84279894       0.00000000
Si      -1.60186086       1.76985149      -0.05961186       0.00000000
Si      -1.14572457      -2.18442288       0.03214905       0.00000000
Si       1.75036280       2.80268635       0.64904564       0.00000000
Si      -3.38212980      -0.97653567       0.09455199       0.00000000
Si      -3.13414713       1.01678107       1.48340491       0.00000000
Si       0.16729830       0.25307492       3.65035663       0.00000000
Si       0.48218400      -1.82772075      -3.16883543       0.00000000
Si       3.54700808      -0.79685697      -0.85107126       0.00000000
