10
Lattice="16.28999089631971 0.0 0.0 0.0 16.28999089631971 0.0 0.0 0.0 34.45770212530097" Properties=species:S:1:pos:R:3:initial_magmoms:R:1 pbc="T T T"
Si      -1.34677575      -1.34107425      -1.39763964       0.00000000
Si       1.36769158       1.37218815      -1.39378037       0.00000000
Si      -1.36883241       1.33885881       1.53664209       0.00000000
Si       1.42475828      -1.41481908       1.48681622       0.00000000
Si       0.59408001       2.16613017       2.73266959       0.00000000
Si      -2.68943013      -2.70570873      -0.01350743       0.00000000
Si       2.73066731      -2.69707177      -0.04052228       0.00000000
Si      -2.70150102       2.72971530      -0.01371417       0.00000000
Si       0.00777033      -2.70075168      -2.75809939       0.00000000
Si      -2.70666495       0.01404198      -2.75875409       0.00000000
