10
Lattice="16.28999089631971 0.0 0.0 0.0 16.28999089631971 0.0 0.0 0.0 34.45770212530097" Properties=species:S:1:pos:R:3:initial_magmoms:R:1 pbc="T T T"
Si       0.89831924       1.72519245       1.27438437       0.00000000
Si       1.41065440      -1.27198836      -1.34143909       0.00000000
Si      -1.34754138       1.44057357      -1.34106006       0.00000000
Si      -0.74831373      -1.82708640       1.42493015       0.00000000
Si      -0.52693263      -0.40425264       3.30535692       0.00000000
Si       0.02529784      -2.62102842      -2.70151981       0.00000000
Si      -2.71122615      -2.65435776       0.22890264       0.00000000
Si      -2.68995141       0.09617616      -2.70848027       0.00000000
Si       2.65184000       2.76051969       0.02019222       0.00000000
Si       2.74148387       0.09347202      -2.71175376       0.00000000
