10
Lattice="16.28999089631971 0.0 0.0 0.0 16.28999089631971 0.0 0.0 0.0 34.45770212530097" Properties=species:S:1:pos:R:3:initial_magmoms:R:1 pbc="T T T"
Si      -1.69038072      -0.69592509      -1.48150973       0.00000000
Si       1.51136991       0.61888968      -1.71061912       0.00000000
Si      -0.31050369       1.77963363       1.54935698       0.00000000
Si       0.24459435      -1.91246229       1.42489569       0.00000000
Si       1.39406562      -1.45148787      -2.92890632       0.00000000
Si      -2.58551622       1.34568432       2.04179228       0.00000000
Si       1.84981095      -1.12040991       2.90130568       0.00000000
Si      -3.27645657      -0.87866631       1.66361879       0.00000000
Si       1.14241770       1.18374543       3.43281603       0.00000000
Si       0.84046626       2.82030399      -2.44480979       0.00000000
