10
Lattice="16.28999089631971 0.0 0.0 0.0 16.28999089631971 0.0 0.0 0.0 34.45770212530097" Properties=species:S:1:pos:R:3:initial_magmoms:R:1 pbc="T T T"
Si      -2.27501253      -0.43394931       0.49243530       0.00000000
Si       0.31050369      -1.77963363      -1.54935698       0.00000000
Si      -0.04277754       2.32437123      -0.74366654       0.00000000
Si       1.45292139      -0.59588820       1.88345905       0.00000000
Si      -0.53266671       1.62408042       2.85340945       0.00000000
Si      -1.24209621       3.15923373       1.19888750       0.00000000
Si      -2.25945558       0.09023031       2.83952299       0.00000000
Si       0.55509804      -3.69209592      -0.12446129       0.00000000
Si      -0.78218064       2.24122707      -3.02986744       0.00000000
Si       2.16031464      -2.90004354       1.35194870       0.00000000
