10
Lattice="16.28999089631971 0.0 0.0 0.0 16.28999089631971 0.0 0.0 0.0 34.45770212530097" Properties=species:S:1:pos:R:3:initial_magmoms:R:1 pbc="T T T"
Si      -1.60521660      -0.79205238      -1.47640999       0.00000000
Si       0.05613534      -1.25983602       1.97180865       0.00000000
Si       2.03948586      -0.76225797      -0.91416335       0.00000000
Si      -0.70739325       2.30415534       0.53151035       0.00000000
Si       0.13727583       0.52595523       3.46244968       0.00000000
Si      -1.84981095       1.12040991      -2.90130568       0.00000000
Si       3.53702231       0.76592322      -0.05740656       0.00000000
Si      -0.47454399      -2.62563849      -2.51930738       0.00000000
Si      -3.59523558      -1.14344397      -0.12508153       0.00000000
Si      -2.16031464       2.90004354      -1.35194870       0.00000000
