10
Lattice="16.28999089631971 0.0 0.0 0.0 16.28999089631971 0.0 0.0 0.0 34.45770212530097" Properties=species:S:1:pos:R:3:initial_magmoms:R:1 pbc="T T T"
Si       1.35739683      -1.35392706       1.35784097       0.00000000
Si      -1.35769005      -1.35588186      -1.35718627       0.00000000
Si       1.35685926       1.35927018      -1.35725519       0.00000000
Si      -1.35503478       1.35920502       1.36280288       0.00000000
Si       2.69980686      -0.00952965       2.72526118       0.00000000
Si       2.71336014      -2.71285515       0.00006892       0.00000000
Si      -0.00058644      -2.71316466      -2.71451038       0.00000000
Si      -2.71507059      -2.71394658      -0.00027566       0.00000000
Si       2.71471221       0.00174303      -2.71447592       0.00000000
Si      -2.71513575       0.00141723      -2.71437254       0.00000000
