10
Lattice="16.28999089631971 0.0 0.0 0.0 16.28999089631971 0.0 0.0 0.0 34.45770212530097" Properties=species:S:1:pos:R:3:initial_magmoms:R:1 pbc="T T T"
Si      -1.22334642      -0.41484114       1.97649490       0.00000000
Si       0.48840678       2.35361178       0.09978956       0.00000000
Si       2.18518947      -1.03286745      -0.00365252       0.00000000
Si      -1.57630185       0.63043929      -1.74938406       0.00000000
Si      -2.97673686       0.69315579       0.56121291       0.00000000
Si       0.65045970      -0.07020990       3.58298278       0.00000000
Si       1.96380837      -2.45570121      -1.88407929       0.00000000
Si      -0.03714120       2.09096811      -3.19140524       0.00000000
Si       1.35350352       2.90494683       2.24681572       0.00000000
Si       1.93784211       2.96624610      -1.85982105       0.00000000
