10
Lattice="16.28999089631971 0.0 0.0 0.0 16.28999089631971 0.0 0.0 0.0 34.45770212530097" Properties=species:S:1:pos:R:3:initial_magmoms:R:1 pbc="T T T"
Si      -1.64017494       1.48476834      -0.74831834       0.00000000
Si       1.96448670      -0.10797012      -1.33675284       0.00000000
Si       0.23964219      -1.06960140       2.15023073       0.00000000
Si      -0.93025674      -1.86961959      -1.30815293       0.00000000
Si       2.42659328      -2.23640523      -0.58281790       0.00000000
Si      -2.28788163       0.39164418      -2.72329709       0.00000000
Si       2.56780966      -1.78751799       1.79845185       0.00000000
Si      -0.45167283       3.04057737      -2.05977921       0.00000000
Si       0.54237555      -3.60652455      -0.76230817       0.00000000
Si       1.52061125      -0.28935927      -3.63549635       0.00000000
