10
Lattice="16.28999089631971 0.0 0.0 0.0 16.28999089631971 0.0 0.0 0.0 34.45770212530097" Properties=species:S:1:pos:R:3:initial_magmoms:R:1 pbc="T T T"
Si       1.64017494      -1.48476834       0.74831834       0.00000000
Si      -0.64770669      -1.09312416      -1.97497876       0.00000000
Si       1.18850211       1.55580903      -1.31146088       0.00000000
Si      -1.55605338       0.67754997       1.65907037       0.00000000
Si       0.70991820      -3.35438793      -0.55983460       0.00000000
Si      -0.78307659       2.42774757      -2.41204050       0.00000000
Si       2.69179218       2.77910658       0.06805400       0.00000000
Si      -1.35713619       0.44202915      -3.62950071       0.00000000
Si      -3.30776595       2.00112876       0.79394036       0.00000000
Si       3.60466164      -1.59273846      -0.58843451       0.00000000
