10
Lattice="16.28999089631971 0.0 0.0 0.0 16.28999089631971 0.0 0.0 0.0 34.45770212530097" Properties=species:S:1:pos:R:3:initial_magmoms:R:1 pbc="T T T"
Si       1.19443167      -1.43444853       1.36224467       0.00000000
Si      -1.73783349      -0.96397704      -1.23729580       0.00000000
Si       1.74790071       0.80827722      -1.44727396       0.00000000
Si      -1.51283601       1.30373757       1.35460194       0.00000000
Si       0.44189883       0.88814709      -3.52221457       0.00000000
Si       2.53653219      -0.06240699       2.71644001       0.00000000
Si       2.61104265       2.64767886      -0.12776923       0.00000000
Si       2.63344140      -2.63013453      -0.12627377       0.00000000
Si      -0.68639544      -2.39902830      -2.80563179       0.00000000
Si      -0.17712117       2.65538403       2.72105734       0.00000000
