10
Lattice="16.28999089631971 0.0 0.0 0.0 16.28999089631971 0.0 0.0 0.0 34.45770212530097" Properties=species:S:1:pos:R:3:initial_magmoms:R:1 pbc="T T T"
Si      -1.35669636       1.35700587      -1.35542893       0.00000000
Si       1.35889551       1.35568638       1.35697953       0.00000000
Si      -1.35597960      -1.35927018       1.35701398       0.00000000
Si       1.35695700      -1.36078515      -1.36004626       0.00000000
Si      -2.69241120       0.00535941      -2.72188433       0.00000000
Si      -0.00057015       2.68987747      -2.72990264       0.00000000
Si      -2.71186146       2.71190503      -0.00051687       0.00000000
Si       0.00136836       2.71341428       2.71420026       0.00000000
Si      -2.71389771      -0.00158013       2.71409688       0.00000000
Si       2.71673961       2.71209812       0.00013783       0.00000000
