10
Lattice="16.28999089631971 0.0 0.0 0.0 16.28999089631971 0.0 0.0 0.0 34.45770212530097" Properties=species:S:1:pos:R:3:initial_magmoms:R:1 pbc="T T T"
Si       1.35784410       1.35641174      -1.35684169       0.00000000
Si       1.35684266      -1.35715248       1.35715181       0.00000000
Si      -1.35889551      -1.35568638      -1.35697953       0.00000000
Si      -1.35752715       1.35772790       1.35722073       0.00000000
Si       2.71310832       0.00138465      -2.71292532       0.00000000
Si      -2.71559187       0.00131949      -2.71240845       0.00000000
Si      -0.00203625       2.71432844       2.71482049       0.00000000
Si      -0.00131949      -2.71451673       2.71499278       0.00000000
Si      -2.71487511      -2.71495656       0.00003446       0.00000000
Si       2.71498818      -2.71485882      -0.00006892       0.00000000
