10
Lattice="16.28999089631971 0.0 0.0 0.0 16.28999089631971 0.0 0.0 0.0 34.45770212530097" Properties=species:S:1:pos:R:3:initial_magmoms:R:1 pbc="T T T"
Si      -1.55924622      -1.29015171       1.15050886       0.00000000
Si       1.26933309      -1.29459888      -1.49522390       0.00000000
Si       1.85166801       0.75716313       1.31201220       0.00000000
Si      -1.41641550       1.42397636      -1.46086956       0.00000000
Si       2.56979637      -2.71272483      -0.16725778       0.00000000
Si       2.69777291       2.71486601       0.03945409       0.00000000
Si       3.52778913      -1.05104709       1.21532383       0.00000000
Si       2.63972167       0.07581366      -2.84617333       0.00000000
Si      -0.07545528      -2.63987595      -2.84820633       0.00000000
Si      -2.77361685       2.77129457       0.03742109       0.00000000
