10
Lattice="16.28999089631971 0.0 0.0 0.0 16.28999089631971 0.0 0.0 0.0 34.45770212530097" Properties=species:S:1:pos:R:3:initial_magmoms:R:1 pbc="T T T"
Si       0.34994178       1.70061084      -1.58522747       0.00000000
Si      -1.50329007      -1.22329755      -1.37951488       0.00000000
Si       2.06737109      -1.07162136       0.78198353       0.00000000
Si      -1.27796679       1.34390871       1.61575701       0.00000000
Si       1.30271849       3.36977288      -0.25919098       0.00000000
Si       3.75292997       0.51321645       0.12328973       0.00000000
Si       1.96151541       0.96352092      -3.12180064       0.00000000
Si      -2.69179218      -2.77910658      -0.06805400       0.00000000
Si      -0.13224222       3.52833159       1.58360796       0.00000000
Si      -0.15925104      -2.26963683      -3.22203815       0.00000000
