10
Lattice="16.28999089631971 0.0 0.0 0.0 16.28999089631971 0.0 0.0 0.0 34.45770212530097" Properties=species:S:1:pos:R:3:initial_magmoms:R:1 pbc="T T T"
Si       1.35681039       1.35692937       1.35615254       0.00000000
Si       1.35728280      -1.35733390      -1.35684169       0.00000000
Si      -1.35729420       1.35709390      -1.35711736       0.00000000
Si      -1.35645690      -1.35818098       1.35870241       0.00000000
Si      -2.71428841      -0.00154118      -2.71399351       0.00000000
Si      -2.71480453       2.71453797       0.00000000       0.00000000
Si       0.00024435      -2.71433977       2.71509616       0.00000000
Si      -0.00026064      -2.71363930      -2.71585423       0.00000000
Si       2.71510317       2.71458684       0.00024120       0.00000000
Si      -0.00141723       2.71507554      -2.71478604       0.00000000
