10
Lattice="16.28999089631971 0.0 0.0 0.0 16.28999089631971 0.0 0.0 0.0 34.45770212530097" Properties=species:S:1:pos:R:3:initial_magmoms:R:1 pbc="T T T"
Si       1.35875557       1.35643572       1.35687615       0.00000000
Si      -1.35723608       1.35747828      -1.35763422       0.00000000
Si      -1.35858815      -1.35711990       1.35691061       0.00000000
Si       1.35766903      -1.35783666      -1.35742748       0.00000000
Si       2.71688382      -0.00089595       2.71140918       0.00000000
Si      -2.71455146       0.00180819       2.71468266       0.00000000
Si       0.00048655       2.71360449       2.71599206       0.00000000
Si       0.00292484      -2.71523349      -2.71451038       0.00000000
Si       2.71512450      -2.71494027      -0.00024120       0.00000000
Si       2.71530369       2.71476108      -0.00027566       0.00000000
