10
Lattice="16.28999089631971 0.0 0.0 0.0 16.28999089631971 0.0 0.0 0.0 34.45770212530097" Properties=species:S:1:pos:R:3:initial_magmoms:R:1 pbc="T T T"
Si      -0.05111639       2.30565402       0.42493262       0.00000000
Si       1.70770188      -1.16941023       1.15367897       0.00000000
Si      -2.17188284      -0.92750373       0.32469511       0.00000000
Si       0.67651230       0.33394500      -2.29312690       0.00000000
Si       2.16118290       2.23190919       1.33981958       0.00000000
Si      -2.80398371      -0.68532030      -1.94179597       0.00000000
Si       3.47787102       0.30540492       0.89414341       0.00000000
Si      -1.54363779      -3.21110109       0.59150125       0.00000000
Si      -0.90409826      -1.33995024      -3.25211974       0.00000000
Si      -1.21385750       3.07677375      -1.51348650       0.00000000
