10
Lattice="16.28999089631971 0.0 0.0 0.0 16.28999089631971 0.0 0.0 0.0 34.45770212530097" Properties=species:S:1:pos:R:3:initial_magmoms:R:1 pbc="T T T"
Si      -1.43416901       1.27746180       1.32324542       0.00000000
Si       1.26328298      -1.41638292       1.37107273       0.00000000
Si       1.35123269       1.34840475      -1.35753085       0.00000000
Si      -1.36347041      -1.36893015      -1.35629037       0.00000000
Si      -2.16283700      -0.58204170       2.80006890       0.00000000
Si      -0.49023778      -2.45171016       2.62526488       0.00000000
Si       2.69830166       2.70000234       0.02374137       0.00000000
Si      -0.00546855       2.70456354      -2.71392459       0.00000000
Si       2.70877613      -0.01037673      -2.71557856       0.00000000
Si      -2.73463229       2.69558775      -0.00472071       0.00000000
