10
Lattice="16.28999089631971 0.0 0.0 0.0 16.28999089631971 0.0 0.0 0.0 34.45770212530097" Properties=species:S:1:pos:R:3:initial_magmoms:R:1 pbc="T T T"
Si       1.07355987       1.74544811       1.00578643       0.00000000
Si      -1.21626027       1.41710524      -1.39950035       0.00000000
Si      -1.69215307      -1.06655517       1.30370789       0.00000000
Si       1.48232484      -1.30569237      -1.37837777       0.00000000
Si       0.24755913      -1.33415100       2.99454828       0.00000000
Si       1.67179383       0.72151409       2.93262775       0.00000000
Si      -2.52216930       2.69935793       0.12783815       0.00000000
Si      -3.36827420       0.74165505       1.40039625       0.00000000
Si      -2.58022054       0.06030558      -2.75778927       0.00000000
Si      -2.65014584      -2.72823291      -0.07887372       0.00000000
