10
Lattice="16.28999089631971 0.0 0.0 0.0 16.28999089631971 0.0 0.0 0.0 34.45770212530097" Properties=species:S:1:pos:R:3:initial_magmoms:R:1 pbc="T T T"
Si      -1.72329955       0.41676336       1.46390184       0.00000000
Si      -0.24768945      -0.52712811      -2.29812327       0.00000000
Si       1.64685384       1.69538175       0.50163551       0.00000000
Si       0.16707024      -2.32606539       0.68426143       0.00000000
Si       2.49676830      -2.05038972       0.05120417       0.00000000
Si       3.33800019       0.16996986      -0.12322081       0.00000000
Si      -0.56055845      -0.35435637       3.40232095       0.00000000
Si      -2.28619466       0.63372987      -2.64800697       0.00000000
Si      -3.54019886      -0.96875001       0.91316407       0.00000000
Si      -0.50944206      -2.66001039       2.97738833       0.00000000
