10
Lattice="16.28999089631971 0.0 0.0 0.0 16.28999089631971 0.0 0.0 0.0 34.56409401068381" Properties=species:S:1:pos:R:3:initial_magmoms:R:1 pbc="T T T"
Si      -1.35032697      -1.34169769       1.36950621       0.00000000
Si      -1.48902003       1.24153860      -1.32946369       0.00000000
Si       1.35720135       1.38205289       1.36553134       0.00000000
Si       1.37992590      -1.40511466      -1.42650935       0.00000000
Si       0.50272569       1.82122477      -2.62337887       0.00000000
Si       2.47472793       0.25227297      -2.90052503       0.00000000
Si      -2.70985779      -2.70067465      -0.01191079       0.00000000
Si      -0.00066789      -2.69380027       2.72728827       0.00000000
Si       2.72888451      -2.70663679      -0.00792555       0.00000000
Si      -2.71415835       0.02000779       2.72511074       0.00000000
