10
Lattice="16.28999089631971 0.0 0.0 0.0 16.28999089631971 0.0 0.0 0.0 34.56409401068381" Properties=species:S:1:pos:R:3:initial_magmoms:R:1 pbc="T T T"
Si       1.48902003      -1.24153860       1.32946369       0.00000000
Si      -1.23346251       1.50262870       1.32991302       0.00000000
Si      -1.35837423      -0.96061315      -1.76389454       0.00000000
Si       1.99174572       0.57968617      -1.29391519       0.00000000
Si       0.62644824      -0.41674381      -3.08742356       0.00000000
Si      -2.45535912      -2.48347633      -0.12585139       0.00000000
Si       0.13869306      -2.58323629       2.69896990       0.00000000
Si      -2.58799230       0.13881361       2.69534066       0.00000000
Si      -2.51831997       2.91671473      -0.15097605       0.00000000
Si       2.76268626       2.69603410      -0.13815967       0.00000000
