10
Lattice="16.28999089631971 0.0 0.0 0.0 16.28999089631971 0.0 0.0 0.0 34.56409401068381" Properties=species:S:1:pos:R:3:initial_magmoms:R:1 pbc="T T T"
Si       1.35391077       1.33203499       1.38287561       0.00000000
Si      -1.35668007       1.35309471      -1.36023612       0.00000000
Si       1.35738054      -1.36082322      -1.35850791       0.00000000
Si      -1.34770428      -1.36860984       1.39124013       0.00000000
Si      -2.71285515       2.71021786       0.00186646       0.00000000
Si       2.71963179       2.70707389       0.00231580       0.00000000
Si       0.00034209       2.71127671      -2.71635910       0.00000000
Si      -2.71448415      -0.00299239      -2.71670474       0.00000000
Si       2.71529865      -0.00298731      -2.71646279       0.00000000
Si      -2.71371852      -2.72020743      -0.00069128       0.00000000
