10
Lattice="16.28999089631971 0.0 0.0 0.0 16.28999089631971 0.0 0.0 0.0 34.56409401068381" Properties=species:S:1:pos:R:3:initial_magmoms:R:1 pbc="T T T"
Si       0.99373887      -1.84174740       1.01538996       0.00000000
Si      -1.50293169      -1.10563488      -1.41847665       0.00000000
Si      -1.35373158       1.05753051       1.77123799       0.00000000
Si       2.36938050       0.67600242      -0.90101731       0.00000000
Si       0.37874250      -2.24097946      -2.81676785       0.00000000
Si       2.59840161      -0.81968022       2.44793420       0.00000000
Si      -0.82085310      -3.00907577       1.97253938       0.00000000
Si       1.68463035       3.22667433       0.65516277       0.00000000
Si      -2.20508770       0.54589419      -2.93497712       0.00000000
Si      -3.45229246      -0.01723482       1.87963105       0.00000000
