10
Lattice="16.28999089631971 0.0 0.0 0.0 16.28999089631971 0.0 0.0 0.0 34.56409401068381" Properties=species:S:1:pos:R:3:initial_magmoms:R:1 pbc="T T T"
Si       0.08690715      -2.18733975       0.70521160       0.00000000
Si      -0.59784300       0.36333216       2.26139168       0.00000000
Si       1.93906386       1.36467846      -0.12059419       0.00000000
Si      -1.82948103       0.52530363      -1.42953716       0.00000000
Si       1.24465374      -2.72741841      -1.36376166       0.00000000
Si      -0.37004364       1.94786046      -2.67754360       0.00000000
Si       2.64399732       1.19825982       2.08297173       0.00000000
Si       1.00440882       3.32026038      -1.07383787       0.00000000
Si       2.28167514      -0.98753238      -2.70274084       0.00000000
Si      -3.49418871       1.67565456      -0.21847976       0.00000000
