10
Lattice="16.28999089631971 0.0 0.0 0.0 16.28999089631971 0.0 0.0 0.0 34.56409401068381" Properties=species:S:1:pos:R:3:initial_magmoms:R:1 pbc="T T T"
Si      -1.00398528      -1.77007140       1.18091750       0.00000000
Si      -1.09467171       0.55372968      -2.01702340       0.00000000
Si      -0.57765969       1.86927750       1.34934842       0.00000000
Si       2.09406321      -0.67233717      -1.03374350       0.00000000
Si       2.14716861       1.38865734      -2.19544335       0.00000000
Si       1.15121430      -2.62451448      -1.97347261       0.00000000
Si      -0.18090045      -3.49262487      -0.22425197       0.00000000
Si       1.34314308       3.23635059       1.19190888       0.00000000
Si       0.12131163      -2.04387372       3.27183897       0.00000000
Si      -3.02024745       1.84655295      -1.54363330       0.00000000
