10
Lattice="16.28999089631971 0.0 0.0 0.0 16.28999089631971 0.0 0.0 0.0 34.56409401068381" Properties=species:S:1:pos:R:3:initial_magmoms:R:1 pbc="T T T"
Si       1.00398528       1.77007140      -1.18091750       0.00000000
Si       0.82308483      -1.72255347      -1.40516946       0.00000000
Si       1.12529691      -0.27380232       2.09092147       0.00000000
Si      -2.39529789       0.26756325       0.17869647       0.00000000
Si       0.52861050      -2.56456728       2.55114264       0.00000000
Si       0.42632559       3.63934890       0.16843092       0.00000000
Si      -0.70379316       2.89224063       2.14753749       0.00000000
Si      -3.12904836       0.15465726      -2.08186567       0.00000000
Si      -0.04883742       1.10179044       3.64457837       0.00000000
Si       2.57893506      -2.89886414      -0.29894502       0.00000000
