10
Lattice="16.28999089631971 0.0 0.0 0.0 16.28999089631971 0.0 0.0 0.0 34.56409401068381" Properties=species:S:1:pos:R:3:initial_magmoms:R:1 pbc="T T T"
Si       0.98588709       1.05950160       1.83932929       0.00000000
Si       1.95426243       0.11925909      -1.41616085       0.00000000
Si      -1.91482434       1.47002589      -0.10901521       0.00000000
Si      -0.50235102      -2.26813815       0.69373632       0.00000000
Si      -0.97094916      -1.70670330      -2.84158488       0.00000000
Si       1.06303653      -0.60250194      -3.50480109       0.00000000
Si       1.22186403       3.40236198       1.18959309       0.00000000
Si      -2.07402651       2.45089566       2.11373379       0.00000000
Si      -0.57173013       1.34262180       3.57171721       0.00000000
Si      -1.09188612      -3.50842617      -1.21479033       0.00000000
