10
Lattice="16.28999089631971 0.0 0.0 0.0 16.28999089631971 0.0 0.0 0.0 34.56409401068381" Properties=species:S:1:pos:R:3:initial_magmoms:R:1 pbc="T T T"
Si       2.08989297      -0.66911175      -1.01117314       0.00000000
Si      -0.88760952      -2.12229378       0.74129654       0.00000000
Si      -1.88628426       0.81008541      -1.44260240       0.00000000
Si       0.13820436       1.45709163       2.19516684       0.00000000
Si      -2.49108309      -1.14694632       2.27089681       0.00000000
Si      -1.37919285       3.04435665       1.40181674       0.00000000
Si      -1.86499323       3.11564169      -0.84637144       0.00000000
Si       2.57054571       1.11876462      -2.48830508       0.00000000
Si      -3.22869429      -2.08446840       0.15111430       0.00000000
Si      -1.14572457       0.24876459       3.74122451       0.00000000
