10
Lattice="16.28999089631971 0.0 0.0 0.0 16.28999089631971 0.0 0.0 0.0 34.56409401068381" Properties=species:S:1:pos:R:3:initial_magmoms:R:1 pbc="T T T"
Si       1.35574196       1.35808101       1.35743642       0.00000000
Si       1.35765114      -1.35675338      -1.35733273       0.00000000
Si      -1.35739894       1.35759231      -1.35719447       0.00000000
Si      -1.35842521      -1.35772100       1.35750555       0.00000000
Si      -2.71261291      -0.00092853       2.71449264       0.00000000
Si      -0.00150801       2.71461447       2.71255705       0.00000000
Si       2.71484761       0.00009774      -2.71342115       0.00000000
Si      -2.71536592       0.00000000      -2.71366310       0.00000000
Si       0.00255401      -2.71479991       2.71425069       0.00000000
Si      -2.71481206      -2.71425583      -0.00020738       0.00000000
