10
Lattice="16.28999089631971 0.0 0.0 0.0 16.28999089631971 0.0 0.0 0.0 34.56409401068381" Properties=species:S:1:pos:R:3:initial_magmoms:R:1 pbc="T T T"
Si      -1.35694071       1.35722557      -1.35750555       0.00000000
Si       1.35866745       1.35654465       1.35698709       0.00000000
Si       1.35785295      -1.35824317      -1.35729817       0.00000000
Si      -1.35791811      -1.35783592       1.35795488       0.00000000
Si      -0.00123804      -2.71428793      -2.71411243       0.00000000
Si       0.00433314       2.71006120       2.71877859       0.00000000
Si      -0.00001629       2.71432918      -2.71476915       0.00000000
Si       2.71331127       0.00456072       2.71584064       0.00000000
Si      -2.71495656       2.71426402       0.00010369       0.00000000
Si       2.71508688       2.71489933      -0.00024195       0.00000000
