10
Lattice="16.28999089631971 0.0 0.0 0.0 16.28999089631971 0.0 0.0 0.0 34.56409401068381" Properties=species:S:1:pos:R:3:initial_magmoms:R:1 pbc="T T T"
Si      -1.03223214      -1.78333702       1.19612571       0.00000000
Si      -1.38245085       1.87211359       0.79770517       0.00000000
Si       2.05830666       0.71151625       1.15758672       0.00000000
Si       0.36600372      -1.69429588      -1.75637542       0.00000000
Si       2.46669696       1.55698354      -1.96624871       0.00000000
Si       1.28899512      -2.78636119       1.75948619       0.00000000
Si       1.55988153      -0.23138389      -3.19638551       0.00000000
Si       1.04989050       1.81247590       2.92540286       0.00000000
Si       0.92955627      -3.66965386      -0.40329407       0.00000000
Si      -3.07827243       1.65591271      -1.75056865       0.00000000
