10
Lattice="16.28999089631971 0.0 0.0 0.0 16.28999089631971 0.0 0.0 0.0 34.56409401068381" Properties=species:S:1:pos:R:3:initial_magmoms:R:1 pbc="T T T"
Si      -1.37697741       1.22232015      -1.43295901       0.00000000
Si       1.77008769       0.84106899       1.34965950       0.00000000
Si       1.30973229      -1.49738983      -1.39984659       0.00000000
Si      -1.91819637      -0.95509899       1.42003203       0.00000000
Si       2.63520072       2.48298696      -0.10054701       0.00000000
Si      -2.70008379       2.50926273      -0.03511714       0.00000000
Si      -0.03515382       2.57274486      -2.77733020       0.00000000
Si       2.68545537      -0.14436198      -2.77567112       0.00000000
Si       0.84054771       1.39751910       3.51150653       0.00000000
Si      -2.74291020      -0.14770143      -2.77138517       0.00000000
