10
Lattice="16.28999089631971 0.0 0.0 0.0 16.28999089631971 0.0 0.0 0.0 34.56409401068381" Properties=species:S:1:pos:R:3:initial_magmoms:R:1 pbc="T T T"
Si      -1.81890882       1.72447569      -0.11616998       0.00000000
Si      -0.88238043      -2.00384009      -1.27230501       0.00000000
Si       1.91819637       0.95509899      -1.42003203       0.00000000
Si      -0.61380720      -0.32234489       2.51173955       0.00000000
Si       1.69582158       0.21620088       2.54827382       0.00000000
Si      -2.19043485      -0.56764134      -2.81085739       0.00000000
Si       0.54121896       2.17741914      -2.85299104       0.00000000
Si      -1.78883748      -3.24950381       0.51859996       0.00000000
Si      -0.78188742       3.46436172      -1.45514917       0.00000000
Si       3.07827243      -1.65591271       1.75056865       0.00000000
