10
Lattice="16.28999089631971 0.0 0.0 0.0 16.28999089631971 0.0 0.0 0.0 34.56409401068381" Properties=species:S:1:pos:R:3:initial_magmoms:R:1 pbc="T T T"
Si      -0.80171235       1.95932699       1.04079458       0.00000000
Si       2.30962878       0.53854577       0.03653427       0.00000000
Si       0.29584269      -1.34561264       2.08798352       0.00000000
Si       0.61380720       0.32234489      -2.51173955       0.00000000
Si      -2.51331894      -1.26947481      -0.65219025       0.00000000
Si      -1.20510162       2.04682058      -2.62790954       0.00000000
Si      -2.36284821       2.58689924      -0.55893628       0.00000000
Si      -1.58869854      -2.67138963       1.75979727       0.00000000
Si      -2.13382710       1.09121660       2.79001523       0.00000000
Si      -1.17503028      -2.92715892      -1.99313959       0.00000000
