10
Lattice="16.28999089631971 0.0 0.0 0.0 16.28999089631971 0.0 0.0 0.0 34.56409401068381" Properties=species:S:1:pos:R:3:initial_magmoms:R:1 pbc="T T T"
Si      -0.38762055       0.55517949       2.20163033       0.00000000
Si      -0.23646564       1.58242689      -1.71234074       0.00000000
Si       0.66842757      -2.07210266      -1.00087303       0.00000000
Si       1.86171894       1.31481477       1.40662116       0.00000000
Si      -2.47790448       0.72702270      -2.03848771       0.00000000
Si       1.58542425       0.81344115      -3.03981007       0.00000000
Si       3.50225226      -0.14434569       0.36724370       0.00000000
Si       2.70669753      -2.30651739       0.06069458       0.00000000
Si      -2.59654455      -2.55137075       0.58026233       0.00000000
Si       1.00089018      -1.43039232      -3.30934103       0.00000000
