10
Lattice="16.28999089631971 0.0 0.0 0.0 16.28999089631971 0.0 0.0 0.0 34.56409401068381" Properties=species:S:1:pos:R:3:initial_magmoms:R:1 pbc="T T T"
Si       1.35169533      -1.35733167       1.35622668       0.00000000
Si       1.35479043       1.35679410      -1.35695253       0.00000000
Si      -1.35975888      -1.35755973      -1.35674514       0.00000000
Si      -1.35993807       1.35575154       1.36127304       0.00000000
Si       0.00987174      -2.70775638       2.70059787       0.00000000
Si       2.71168227       2.71375110       0.00110605       0.00000000
Si       2.71194291      -0.00035838      -2.71376679       0.00000000
Si       2.71264338      -2.71502172       0.00148626       0.00000000
Si       2.70290196       0.00330687       2.72558772       0.00000000
Si      -0.00252495       2.71389771      -2.71466546       0.00000000
