10
Lattice="16.28999089631971 0.0 0.0 0.0 16.28999089631971 0.0 0.0 0.0 34.56409401068381" Properties=species:S:1:pos:R:3:initial_magmoms:R:1 pbc="T T T"
Si       0.40378023      -2.31340806       0.42237346       0.00000000
Si       2.07114318       1.08931230      -0.53525986       0.00000000
Si      -0.39868146       1.38435678       1.92421875       0.00000000
Si      -1.71872532       0.19631079      -1.72658115       0.00000000
Si      -2.77452909       0.98412777       1.66146236       0.00000000
Si       0.91686636       2.89316916      -1.66101303       0.00000000
Si      -0.46390662       1.63802466      -3.11083933       0.00000000
Si       1.33332021      -2.86985817      -1.73947357       0.00000000
Si      -3.47946255       1.15054641      -0.54210355       0.00000000
Si       1.32747210      -2.24321445       2.68207150       0.00000000
