10
Lattice="16.28999089631971 0.0 0.0 0.0 16.28999089631971 0.0 0.0 0.0 34.56409401068381" Properties=species:S:1:pos:R:3:initial_magmoms:R:1 pbc="T T T"
Si      -1.35493704      -1.35557235       1.35691796       0.00000000
Si      -1.35136953       1.35812988      -1.35812770       0.00000000
Si       1.35985662       1.35913986       1.35643406       0.00000000
Si       1.36311462      -1.35562122      -1.35805858       0.00000000
Si       2.71873584      -0.01132155      -2.70697840       0.00000000
Si       0.00262269      -2.71231758       2.71435438       0.00000000
Si      -2.71269225       0.00237834       2.71480372       0.00000000
Si      -2.69151525      -0.01268991      -2.73621619       0.00000000
Si      -2.71151937       2.71679733      -0.00048390       0.00000000
Si      -2.71466334      -2.71430496       0.00024195       0.00000000
