10
Lattice="16.28999089631971 0.0 0.0 0.0 16.28999089631971 0.0 0.0 0.0 34.56409401068381" Properties=species:S:1:pos:R:3:initial_magmoms:R:1 pbc="T T T"
Si       1.50790014      -1.10351718       1.42870762       0.00000000
Si      -1.47600432      -1.23962013      -1.37820945       0.00000000
Si       1.15615017       1.41794676      -1.55275823       0.00000000
Si      -0.81762768       1.47740526       1.71742166       0.00000000
Si       3.22680465       0.65823003       1.24060972       0.00000000
Si       2.49080616      -2.74699899      -0.09857685       0.00000000
Si       2.66325210       2.63358801      -0.11247162       0.00000000
Si      -2.56986153       2.73429279       0.41193510       0.00000000
Si      -2.84017779      -2.53403982       0.06708894       0.00000000
Si       2.45902437       0.01565469      -2.94603764       0.00000000
