10
Lattice="16.28999089631971 0.0 0.0 0.0 16.28999089631971 0.0 0.0 0.0 34.56409401068381" Properties=species:S:1:pos:R:3:initial_magmoms:R:1 pbc="T T T"
Si      -0.88249446       1.49894064       1.57605444       0.00000000
Si      -1.37261169      -1.88136468      -0.40647397       0.00000000
Si       2.28016017      -0.65627523       0.22909094       0.00000000
Si      -0.09827757       1.06523568      -2.13699543       0.00000000
Si       2.18082375      -2.29361571      -1.48300785       0.00000000
Si      -2.35985085       2.68025886       0.23541618       0.00000000
Si      -0.00799839      -2.94430347      -2.07280988       0.00000000
Si      -3.41527995      -0.94381002      -1.23808654       0.00000000
Si       1.97980515       2.08583676      -2.54181033       0.00000000
Si       0.80319474       2.39203989       2.91396214       0.00000000
