10
Lattice="16.28999089631971 0.0 0.0 0.0 16.28999089631971 0.0 0.0 0.0 34.56409401068381" Properties=species:S:1:pos:R:3:initial_magmoms:R:1 pbc="T T T"
Si       1.85541471       0.69173856      -1.30282512       0.00000000
Si      -1.63333314      -1.20811527      -1.27579599       0.00000000
Si      -1.08383886       1.63188333       1.45203840       0.00000000
Si       0.91357578      -1.67389524       1.57456818       0.00000000
Si      -2.11398588      -2.99599164       0.20133596       0.00000000
Si      -0.55640124      -1.84570587      -3.26330163       0.00000000
Si       1.07763237       1.67174496      -3.27698902       0.00000000
Si       2.89621539      -1.32748839      -2.16744642       0.00000000
Si       2.92801347       2.62853811      -0.32908492       0.00000000
Si      -3.35859075       0.18065610      -2.14612036       0.00000000
