10
Lattice="16.28999089631971 0.0 0.0 0.0 16.28999089631971 0.0 0.0 0.0 34.56409401068381" Properties=species:S:1:pos:R:3:initial_magmoms:R:1 pbc="T T T"
Si      -0.05698242      -0.10396278      -2.30096832       0.00000000
Si      -1.65960891      -1.16025525       1.14229970       0.00000000
Si       1.24194960       1.71085725       1.14389311       0.00000000
Si      -0.13587489      -2.31428772       2.55315496       0.00000000
Si       2.59090821       0.40933512       2.56247690       0.00000000
Si       0.06905331       2.15568828      -2.97863233       0.00000000
Si      -2.84783409       0.41529726       2.55849166       0.00000000
Si      -3.03881805      -2.60563437      -0.34533079       0.00000000
Si      -0.13797630       3.11597191       2.57040246       0.00000000
Si       2.33675163       3.36824487      -0.33012258       0.00000000
