10
Lattice="16.28999089631971 0.0 0.0 0.0 16.28999089631971 0.0 0.0 0.0 34.56409401068381" Properties=species:S:1:pos:R:3:initial_magmoms:R:1 pbc="T T T"
Si       1.35654975       1.35654975      -1.35695253       0.00000000
Si       1.35490446      -1.35751086       1.35830053       0.00000000
Si      -1.35837423       1.35399222       1.35944114       0.00000000
Si      -1.35827649      -1.35765747      -1.35702165       0.00000000
Si       2.71039536       0.00689067       2.71404331       0.00000000
Si       2.71309950       2.71344159       0.00076041       0.00000000
Si      -0.00084708       2.71412577      -2.71407787       0.00000000
Si       2.71417464      -0.00055386      -2.71431982       0.00000000
Si      -2.71471221      -2.71406061       0.00107149       0.00000000
Si       2.71337643      -2.71603170       0.00093323       0.00000000
