10
Lattice="16.28999089631971 0.0 0.0 0.0 16.28999089631971 0.0 0.0 0.0 34.56409401068381" Properties=species:S:1:pos:R:3:initial_magmoms:R:1 pbc="T T T"
Si       1.35729030       1.35734796       1.35857704       0.00000000
Si      -1.35786404      -1.35760860       1.35864617       0.00000000
Si       1.35871242      -1.35946566      -1.35850791       0.00000000
Si      -1.36081253       1.36161594      -1.35899181       0.00000000
Si       2.71438251      -2.71510317       0.00241949       0.00000000
Si       2.71405671       0.00024435       2.71611715       0.00000000
Si      -0.00027912       2.71472850       2.71611715       0.00000000
Si      -2.71583102      -2.71520091       0.00217754       0.00000000
Si      -0.00046510      -2.71520091       2.71584064       0.00000000
Si      -2.71537490       0.00026064       2.71570238       0.00000000
