10
Lattice="16.28999089631971 0.0 0.0 0.0 16.28999089631971 0.0 0.0 0.0 34.56409401068381" Properties=species:S:1:pos:R:3:initial_magmoms:R:1 pbc="T T T"
Si       0.42492465      -0.56731554      -2.22361310       0.00000000
Si       1.04317902       1.88739754       0.91498121       0.00000000
Si      -1.93908015       1.20397665      -0.57058438       0.00000000
Si      -0.96783777      -2.02434201       0.81519461       0.00000000
Si       2.56575645      -1.13015133       1.84358068       0.00000000
Si      -2.51082657      -2.06221626      -1.02938842       0.00000000
Si       2.74615191      -1.57033971      -1.66025262       0.00000000
Si      -2.61289971       2.46449522       1.23767177       0.00000000
Si      -0.58774320       2.93214203       2.35668494       0.00000000
Si       2.55037869      -2.89056276       0.24388438       0.00000000
