10
Lattice="16.28999089631971 0.0 0.0 0.0 16.28999089631971 0.0 0.0 0.0 34.56409401068381" Properties=species:S:1:pos:R:3:initial_magmoms:R:1 pbc="T T T"
Si       1.34737848      -1.35064184       1.39210423       0.00000000
Si       1.18490202       1.51104411      -1.41278536       0.00000000
Si      -1.37080350       1.37202525       1.38791506       0.00000000
Si      -1.61481141      -1.10875930      -1.51042898       0.00000000
Si       2.07694242      -0.34651925      -2.69151930       0.00000000
Si      -2.81587311       2.57654043      -0.07752731       0.00000000
Si      -3.58681365       0.46019250      -1.23328282       0.00000000
Si       2.75209776      -2.66529554      -0.02625836       0.00000000
Si      -0.01462842      -2.70093806       2.75666431       0.00000000
Si       2.70102861       0.01666630       2.75821970       0.00000000
