10
Lattice="16.28999089631971 0.0 0.0 0.0 16.28999089631971 0.0 0.0 0.0 34.56409401068381" Properties=species:S:1:pos:R:3:initial_magmoms:R:1 pbc="T T T"
Si       1.35021294       1.34900585      -1.36720770       0.00000000
Si       1.35567009      -1.35746257       1.35840422       0.00000000
Si      -1.36005210       1.35711827       1.35961396       0.00000000
Si      -1.35365013      -1.36730814      -1.36611547       0.00000000
Si       2.71449134       2.71285352      -0.00107149       0.00000000
Si       2.71156728      -2.71638261       0.00003456       0.00000000
Si       2.71296496       0.00036490       2.71594433       0.00000000
Si      -0.00208512       2.71471058       2.71608259       0.00000000
Si      -0.00188964      -2.71509570       2.71584064       0.00000000
Si      -2.71665072       0.00007168       2.71608259       0.00000000
