10
Lattice="16.28999089631971 0.0 0.0 0.0 16.28999089631971 0.0 0.0 0.0 34.56409401068381" Properties=species:S:1:pos:R:3:initial_magmoms:R:1 pbc="T T T"
Si       1.35659862       1.35704660      -1.35646863       0.00000000
Si       1.35715248      -1.35720924       1.35698709       0.00000000
Si      -1.35826020       1.35761674       1.35695253       0.00000000
Si      -1.35896067      -1.35862855      -1.35937201       0.00000000
Si       2.71353933      -0.00067441       2.71470002       0.00000000
Si      -2.71467963      -0.00073794       2.71418156       0.00000000
Si       2.71456560       2.71463891       0.00000000       0.00000000
Si       2.71476108      -2.71516737      -0.00024195       0.00000000
Si      -2.71536381       2.71519277      -0.00038021       0.00000000
Si      -0.00030951       2.71553485       2.71528761       0.00000000
