10
Lattice="16.28999089631971 0.0 0.0 0.0 16.28999089631971 0.0 0.0 0.0 34.56409401068381" Properties=species:S:1:pos:R:3:initial_magmoms:R:1 pbc="T T T"
Si       1.00841616      -1.10095965      -1.76781614       0.00000000
Si      -1.46386827      -1.14109984       1.40931716       0.00000000
Si      -0.44572698       2.26624851      -0.32479897       0.00000000
Si       1.46023560       2.41126209       1.14389933       0.00000000
Si       0.50024961      -1.44502889       2.65158595       0.00000000
Si      -2.43234135       0.05963769      -2.12769769       0.00000000
Si       1.12920651       0.87439833       2.90507916       0.00000000
Si       1.86755076      -2.90588255      -0.47262969       0.00000000
Si      -1.04989050      -1.81247590      -2.92540286       0.00000000
Si       2.75871150       0.79511490      -2.18721709       0.00000000
