10
Lattice="16.28999089631971 0.0 0.0 0.0 16.28999089631971 0.0 0.0 0.0 34.56409401068381" Properties=species:S:1:pos:R:3:initial_magmoms:R:1 pbc="T T T"
Si      -1.58612472      -1.82153151      -0.18446867       0.00000000
Si       2.32095752      -0.70644843      -0.01316893       0.00000000
Si       0.05077593       1.33726239      -2.12901112       0.00000000
Si       0.95126337       0.79926885       2.98385078       0.00000000
Si      -3.70571436      -0.77538771      -0.50463605       0.00000000
Si       2.48434622      -2.13239358      -1.97043097       0.00000000
Si      -1.43291727      -3.06492929       1.85080458       0.00000000
Si       3.58455653       1.16654319      -0.86908007       0.00000000
Si       2.03336082       2.59708212      -2.03264638       0.00000000
Si       2.42285147       2.94738228       0.97263415       0.00000000
