10
Lattice="16.28999089631971 0.0 0.0 0.0 16.28999089631971 0.0 0.0 0.0 34.56409401068381" Properties=species:S:1:pos:R:3:initial_magmoms:R:1 pbc="T T T"
Si      -1.35570267       1.35338949       1.36127304       0.00000000
Si       1.36081253      -1.36161594       1.35899181       0.00000000
Si       1.35432969       1.34811153      -1.38491144       0.00000000
Si      -1.35555606      -1.35340578      -1.38181795       0.00000000
Si      -2.71194291       2.71189404       0.00273056       0.00000000
Si       2.62196251      -0.14327055      -2.79834518       0.00000000
Si       0.00215028       2.71186146       2.71729233       0.00000000
Si      -2.71262709      -0.00366525       2.71767254       0.00000000
Si       2.71858013       2.71437012       0.00231580       0.00000000
Si      -2.71365336      -2.71981098       0.00010369       0.00000000
