10
Lattice="16.28999089631971 0.0 0.0 0.0 16.28999089631971 0.0 0.0 0.0 34.56409401068381" Properties=species:S:1:pos:R:3:initial_magmoms:R:1 pbc="T T T"
Si      -1.35796698      -1.35759231      -1.35646863       0.00000000
Si       1.35739894      -1.35759231       1.35719447       0.00000000
Si      -1.35751086       1.35786924       1.35705622       0.00000000
Si       1.35786404       1.35760860      -1.35864617       0.00000000
Si       2.71314090       0.00048870       2.71463090       0.00000000
Si       0.00017919       2.71492398       2.71393961       0.00000000
Si      -2.71456560      -2.71463891       0.00000000       0.00000000
Si       2.71505008      -2.71434569      -0.00013826       0.00000000
Si      -0.00102627      -2.71531331       2.71470002       0.00000000
Si       2.71515434       2.71495656      -0.00006913       0.00000000
