10
Lattice="16.28999089631971 0.0 0.0 0.0 16.28999089631971 0.0 0.0 0.0 34.56409401068381" Properties=species:S:1:pos:R:3:initial_magmoms:R:1 pbc="T T T"
Si       1.35571174      -1.35790182       1.35581191       0.00000000
Si      -1.35519768       1.35731538       1.35719447       0.00000000
Si       1.35740573       1.35741312      -1.35646863       0.00000000
Si      -1.35769005      -1.35705474      -1.35688340       0.00000000
Si      -0.01247814       2.71479366       2.70488382       0.00000000
Si       0.00887805      -2.72246625       2.70187674       0.00000000
Si       2.71586784      -0.00576666       2.71062146       0.00000000
Si       2.71296171      -2.71443528       0.00069128       0.00000000
Si      -0.00017919      -2.71492398      -2.71393961       0.00000000
Si       2.71497515       0.00003258      -2.71400874       0.00000000
