10
Lattice="16.28999089631971 0.0 0.0 0.0 16.28999089631971 0.0 0.0 0.0 34.56409401068381" Properties=species:S:1:pos:R:3:initial_magmoms:R:1 pbc="T T T"
Si       1.46509002       1.76531472       0.44625727       0.00000000
Si       1.53152064      -1.14575715      -1.38933910       0.00000000
Si      -0.19111428      -0.83046420       2.23318736       0.00000000
Si      -2.10794229       0.12732264      -1.17386642       0.00000000
Si       3.51373671      -1.07287569      -0.06587920       0.00000000
Si       1.86254973       0.39110661      -3.15051893       0.00000000
Si       2.18540124       2.35048410      -1.80925851       0.00000000
Si      -0.98666901      -2.99263590       1.92663824       0.00000000
Si      -2.69247636      -2.11651083      -1.44339737       0.00000000
Si       3.42098145       0.84852981       1.29739856       0.00000000
