10
Lattice="16.28999089631971 0.0 0.0 0.0 16.28999089631971 0.0 0.0 0.0 34.56409401068381" Properties=species:S:1:pos:R:3:initial_magmoms:R:1 pbc="T T T"
Si       1.95589143      -0.91678491       0.85114129       0.00000000
Si      -1.46509002      -1.76531472      -0.44625727       0.00000000
Si      -0.86486868       1.26592848       1.80687359       0.00000000
Si       0.72031122       0.58516938      -2.25551578       0.00000000
Si       0.06643062      -2.91107187      -1.83559637       0.00000000
Si      -0.13341510       3.31442856       0.99551559       0.00000000
Si       2.04864669      -2.83819041      -0.51213647       0.00000000
Si      -1.65620430      -2.59577892       1.78693009       0.00000000
Si       3.36406486       0.97800273       0.79753235       0.00000000
Si      -0.81842589       2.20600809      -2.94365271       0.00000000
