10
Lattice="16.28999089631971 0.0 0.0 0.0 16.28999089631971 0.0 0.0 0.0 34.56409401068381" Properties=species:S:1:pos:R:3:initial_magmoms:R:1 pbc="T T T"
Si       0.73145358       2.04850008      -0.81135800       0.00000000
Si      -2.33046369      -0.18342540       0.10825480       0.00000000
Si       0.86486868      -1.26592848      -1.80687359       0.00000000
Si       0.48808098      -0.48378042       2.39878403       0.00000000
Si      -2.66304033       1.27047339       1.97900287       0.00000000
Si      -2.43186894      -2.40254694       1.01943396       0.00000000
Si       3.09676616       1.84889871      -0.66663805       0.00000000
Si       2.82076011      -2.18271339      -0.95573230       0.00000000
Si      -0.60022134      -3.03124320      -2.25313086       0.00000000
Si      -0.09471006       3.79517904       0.55513422       0.00000000
