10
Lattice="16.28999089631971 0.0 0.0 0.0 16.28999089631971 0.0 0.0 0.0 34.56409401068381" Properties=species:S:1:pos:R:3:initial_magmoms:R:1 pbc="T T T"
Si      -1.35689184      -1.35695700      -1.35805858       0.00000000
Si       1.35816246       1.35819504      -1.35764381       0.00000000
Si      -1.35847197       1.35852084       1.35736729       0.00000000
Si       1.36081773      -1.35742941       1.35622668       0.00000000
Si       2.70353727       0.00004887       2.70391602       0.00000000
Si      -2.71168227      -2.71375110      -0.00110605       0.00000000
Si       0.00026064      -2.71410948      -2.71487285       0.00000000
Si      -2.71337643       2.71603170      -0.00093323       0.00000000
Si      -2.71420722       0.00014661      -2.71577151       0.00000000
Si       2.71503801       0.00141723      -2.71525305       0.00000000
