10
Lattice="16.28999089631971 0.0 0.0 0.0 16.28999089631971 0.0 0.0 0.0 34.56409401068381" Properties=species:S:1:pos:R:3:initial_magmoms:R:1 pbc="T T T"
Si      -1.25983602      -1.16783010      -1.58697670       0.00000000
Si      -1.79416431       0.89902881       1.26221229       0.00000000
Si       1.29966507      -1.59681096       1.18064098       0.00000000
Si       1.42200297       1.55380536      -1.36766740       0.00000000
Si      -2.53016280      -2.50620021      -0.07697428       0.00000000
Si      -2.35771686       2.87438679      -0.09086905       0.00000000
Si       2.85602537      -2.40560946      -0.37512432       0.00000000
Si       0.14457375      -2.46642003      -2.93362912       0.00000000
Si      -2.56194459       0.25645347      -2.92443506       0.00000000
Si      -3.51306882      -0.86271840       1.45031020       0.00000000
