10
Lattice="16.28999089631971 0.0 0.0 0.0 16.28999089631971 0.0 0.0 0.0 34.56409401068381" Properties=species:S:1:pos:R:3:initial_magmoms:R:1 pbc="T T T"
Si      -0.46315728       2.20263606       0.67911570       0.00000000
Si      -0.15990264       0.08907372      -2.36715787       0.00000000
Si       1.92619869      -0.94610691       1.03612843       0.00000000
Si      -1.89420120      -1.41918480       0.50802334       0.00000000
Si      -2.19455622       1.32292719      -2.26287794       0.00000000
Si      -1.30852683      -1.94810481       2.73509285       0.00000000
Si      -0.50577192      -2.18297403      -2.82858878       0.00000000
Si       1.05678575      -2.14770618       2.87981279       0.00000000
Si       2.92109741      -2.35872684      -0.56197792       0.00000000
Si      -2.17917846       3.08333862      -0.66318164       0.00000000
