10
Lattice="16.28999089631971 0.0 0.0 0.0 16.28999089631971 0.0 0.0 0.0 34.56409401068381" Properties=species:S:1:pos:R:3:initial_magmoms:R:1 pbc="T T T"
Si      -0.99992907      -0.81560772       1.94298707       0.00000000
Si       1.87569576       0.87182451       1.08939172       0.00000000
Si       0.82616364      -1.74667896      -1.36649222       0.00000000
Si      -1.23647616       1.83055617      -0.90869054       0.00000000
Si       1.50141672       3.13036785       0.54967309       0.00000000
Si       0.51034941       3.21825240      -1.58044408       0.00000000
Si      -2.81851209       2.18362563       0.83344446       0.00000000
Si      -2.04072975       1.20361923       2.80760836       0.00000000
Si       3.57688882      -0.81660141       0.87931104       0.00000000
Si       0.24048927      -1.21775895      -3.59356173       0.00000000
