10
Lattice="16.28999089631971 0.0 0.0 0.0 16.28999089631971 0.0 0.0 0.0 34.56409401068381" Properties=species:S:1:pos:R:3:initial_magmoms:R:1 pbc="T T T"
Si      -1.07422124       1.53223740      -1.31917395       0.00000000
Si      -1.79169149      -1.07773011       1.08693767       0.00000000
Si       1.66470768      -1.15035093      -1.21105740       0.00000000
Si       1.09170693       1.78222374       1.32646698       0.00000000
Si       0.97076997      -0.01949913       2.95326153       0.00000000
Si      -2.63058155       2.34103590       0.23659136       0.00000000
Si      -2.44155239       0.08690715      -2.56797536       0.00000000
Si      -0.95962109      -1.37674935       3.17374601       0.00000000
Si      -0.64480707       3.37520655       1.17155062       0.00000000
Si       0.30654522      -2.61153135      -2.51104827       0.00000000
