10
Lattice="16.28999089631971 0.0 0.0 0.0 16.28999089631971 0.0 0.0 0.0 34.56409401068381" Properties=species:S:1:pos:R:3:initial_magmoms:R:1 pbc="T T T"
Si      -2.07585099       0.76719288       0.87381535       0.00000000
Si       1.56508848       1.71532138      -0.60227967       0.00000000
Si       1.00165485      -1.34907264       1.72350495       0.00000000
Si      -0.70854984      -0.69366078      -2.25040029       0.00000000
Si      -2.51739144      -1.94642694       0.56014602       0.00000000
Si      -0.80137026      -2.82712950       1.90244336       0.00000000
Si      -1.44689409       3.08662010       1.12730856       0.00000000
Si       3.01660568      -2.16696096       0.85715545       0.00000000
Si      -2.57610060       2.21222177      -1.77777060       0.00000000
Si       3.41883836       0.63513474      -1.62738215       0.00000000
