10
Lattice="16.28999089631971 0.0 0.0 0.0 16.28999089631971 0.0 0.0 0.0 34.56409401068381" Properties=species:S:1:pos:R:3:initial_magmoms:R:1 pbc="T T T"
Si       1.71602118      -0.88070256       1.34229734       0.00000000
Si      -0.01537776      -1.76041143      -1.59969629       0.00000000
Si       0.44154045       2.71361982       0.31366933       0.00000000
Si       2.51739144       1.94642694      -0.56014602       0.00000000
Si       0.55483740      -0.06651207       3.18432263       0.00000000
Si      -2.56575645       1.13015133      -1.84358068       0.00000000
Si       0.27375345       2.20095430       2.60803517       0.00000000
Si      -1.52257743       3.01754887      -0.92859947       0.00000000
Si       0.18039546      -0.44018838      -3.50383330       0.00000000
Si       1.80884160       1.25276616      -2.81054631       0.00000000
