10
Lattice="16.28999089631971 0.0 0.0 0.0 16.28999089631971 0.0 0.0 0.0 34.56409401068381" Properties=species:S:1:pos:R:3:initial_magmoms:R:1 pbc="T T T"
Si      -1.92907809       1.16358706      -0.72017787       0.00000000
Si       1.22350932       2.00518075       0.40581725       0.00000000
Si      -0.94465710      -1.20016575       1.83027349       0.00000000
Si       1.52489061      -1.21021668      -1.40140197       0.00000000
Si      -2.40903036       2.44345343       1.23158849       0.00000000
Si       3.43851831       1.27756510       0.47027933       0.00000000
Si      -2.79503820      -2.15695890      -1.11763060       0.00000000
Si       0.53382330      -1.12233213      -3.53151915       0.00000000
Si      -2.01725586      -3.13696530       0.85653329       0.00000000
Si      -1.46870640       2.13034823      -2.83270191       0.00000000
