10
Lattice="16.28999089631971 0.0 0.0 0.0 16.28999089631971 0.0 0.0 0.0 34.56409401068381" Properties=species:S:1:pos:R:3:initial_magmoms:R:1 pbc="T T T"
Si      -0.81760487       2.10471687      -0.42220064       0.00000000
Si      -2.09856088      -1.07476533       0.10839306       0.00000000
Si       0.73375047       0.11290599       2.26056214       0.00000000
Si       1.35373158      -1.05753051      -1.77123799       0.00000000
Si      -1.32087139      -2.98641964       1.22640387       0.00000000
Si      -0.32092929      -1.87266582       3.08498537       0.00000000
Si       1.11278619       3.46196709      -0.64268512       0.00000000
Si       3.12904836      -0.15465726       2.08186567       0.00000000
Si       2.34747045      -2.89927791      -0.75584803       0.00000000
Si      -2.70334898      -1.69440435      -2.13630415       0.00000000
