10
Lattice="16.28999089631971 0.0 0.0 0.0 16.28999089631971 0.0 0.0 0.0 34.56409401068381" Properties=species:S:1:pos:R:3:initial_magmoms:R:1 pbc="T T T"
Si       1.28392893       1.20832704      -1.54605767       0.00000000
Si       1.49183820      -1.20966282       1.36036746       0.00000000
Si      -1.25219601       1.51003413       1.36146660       0.00000000
Si      -1.34535852      -1.39571091      -1.47032770       0.00000000
Si      -0.23346828       2.79559206      -2.33940776       0.00000000
Si       0.11315034      -2.55502134       2.73676230       0.00000000
Si       2.66313807       2.65370616      -0.05842718       0.00000000
Si      -2.60110575       0.16594623       2.73855963       0.00000000
Si      -2.69772337      -2.69169444      -0.06210134       0.00000000
Si       0.25811505      -2.37105837      -2.99992797       0.00000000
