10
Lattice="16.28999089631971 0.0 0.0 0.0 16.28999089631971 0.0 0.0 0.0 34.56409401068381" Properties=species:S:1:pos:R:3:initial_magmoms:R:1 pbc="T T T"
Si       1.35598494      -1.35536151      -1.35733273       0.00000000
Si       1.36336268       1.33344701       1.37278289       0.00000000
Si      -1.36097922       1.35707891      -1.35674514       0.00000000
Si      -1.35140070      -1.36313184       1.37758730       0.00000000
Si      -0.01125498       2.69456773       2.69752166       0.00000000
Si       2.71234247       0.00046565      -2.71449264       0.00000000
Si       2.71397147       2.71367590       0.00407857       0.00000000
Si      -2.71516692       2.71387138       0.00024195       0.00000000
Si      -0.00255401       2.71479991      -2.71425069       0.00000000
Si      -0.00224397      -2.71495749      -2.71411243       0.00000000
