10
Lattice="16.28999089631971 0.0 0.0 0.0 16.28999089631971 0.0 0.0 0.0 34.56409401068381" Properties=species:S:1:pos:R:3:initial_magmoms:R:1 pbc="T T T"
Si      -1.35674530      -1.35708732       1.35709078       0.00000000
Si       1.35968455      -1.35457866      -1.35788576       0.00000000
Si       1.35845466       1.35751086       1.35691796       0.00000000
Si      -1.35858607       1.35959598      -1.35512063       0.00000000
Si      -2.71262716       2.71448415       0.00038021       0.00000000
Si      -2.71362085      -0.00030951       2.71470002       0.00000000
Si       0.00176189       2.71446786       2.71476915       0.00000000
Si      -2.71459825      -2.71555929       0.00107149       0.00000000
Si       2.71553383       2.71515204       0.00010369       0.00000000
Si       0.00163783      -2.71583622       2.71490741       0.00000000
