10
Lattice="16.28999089631971 0.0 0.0 0.0 16.28999089631971 0.0 0.0 0.0 34.56409401068381" Properties=species:S:1:pos:R:3:initial_magmoms:R:1 pbc="T T T"
Si      -0.78999984      -0.38923326       2.17045350       0.00000000
Si       1.94157252       1.30821732       0.25442644       0.00000000
Si      -1.62005679       1.12689333      -1.29290522       0.00000000
Si       0.33076845      -1.98299799      -1.25066788       0.00000000
Si      -0.76870881       1.91632302       2.76668445       0.00000000
Si       0.32599548      -1.02180654      -3.40746855       0.00000000
Si      -3.51679434      -0.20092086      -0.83057564       0.00000000
Si       2.58926292       1.81330506      -1.97696359       0.00000000
Si      -1.90391004       3.20772906      -0.18906570       0.00000000
Si       3.66683013      -0.08055405       1.12475081       0.00000000
