10
Lattice="16.28999089631971 0.0 0.0 0.0 16.28999089631971 0.0 0.0 0.0 34.56409401068381" Properties=species:S:1:pos:R:3:initial_magmoms:R:1 pbc="T T T"
Si       1.35632334       1.35022923       1.35658615       0.00000000
Si       1.30651830      -1.37062431      -1.39425412       0.00000000
Si      -1.35996804      -1.36089918       1.36007712       0.00000000
Si      -1.30417479       1.38465000      -1.42792648       0.00000000
Si      -0.69437493      -2.11989915      -2.41403821       0.00000000
Si      -2.26629477      -0.40202091      -2.75424279       0.00000000
Si       2.55833801       0.20303856      -2.58110973       0.00000000
Si      -2.70889407       2.69930370      -0.00956389       0.00000000
Si       0.00042615       2.70914927       2.71495580       0.00000000
Si       2.71415186      -0.00534312       2.71530144       0.00000000
