10
Lattice="16.28999089631971 0.0 0.0 0.0 16.28999089631971 0.0 0.0 0.0 34.56409401068381" Properties=species:S:1:pos:R:3:initial_magmoms:R:1 pbc="T T T"
Si       1.50293169       1.10563488       1.41847665       0.00000000
Si      -0.70215601       1.65152907      -1.51650047       0.00000000
Si       1.88167419      -1.13534458      -1.39829120       0.00000000
Si      -2.55414887       0.46876104       1.05341048       0.00000000
Si      -2.38372289       2.59737534      -0.16428323       0.00000000
Si       2.49667056      -0.73611252       2.43386660       0.00000000
Si      -2.13345962       0.30851631      -2.93376738       0.00000000
Si       0.50083605      -2.52207386      -2.78109769       0.00000000
Si       0.14920011       2.16316539       3.18971463       0.00000000
Si       0.68207859      -1.90344089       3.39101603       0.00000000
