10
Lattice="16.28999089631971 0.0 0.0 0.0 16.28999089631971 0.0 0.0 0.0 34.40785480372833" Properties=species:S:1:pos:R:3:initial_magmoms:R:1 pbc="T T T"
Si       0.00930159       2.29267089      -0.47455340       0.00000000
Si       2.24542989      -0.39234465       0.61301068       0.00000000
Si      -0.23563485      -0.95765652      -2.14557180       0.00000000
Si      -1.34451144      -1.30854312       1.57082267       0.00000000
Si      -2.44848637      -1.51259166      -1.87774091       0.00000000
Si      -2.04897249      -3.03132465       0.01482979       0.00000000
Si       3.51197739      -0.89935461      -1.27691061       0.00000000
Si       2.26747026      -2.16394731       2.23420648       0.00000000
Si       0.62076303      -3.14730945      -2.13184306       0.00000000
Si      -1.92215484       2.92921893      -1.62800856       0.00000000
