10
Lattice="16.28999089631971 0.0 0.0 0.0 16.28999089631971 0.0 0.0 0.0 34.40785480372833" Properties=species:S:1:pos:R:3:initial_magmoms:R:1 pbc="T T T"
Si      -1.35721764       1.35597960       1.35653043       0.00000000
Si       1.35913986       1.35553977      -1.35790675       0.00000000
Si      -1.35549090      -1.35942076      -1.35780353       0.00000000
Si       1.35811359      -1.35801798       1.35797556       0.00000000
Si       2.71396287      -0.00001303      -2.71460922       0.00000000
Si      -2.71606428       0.00153941       2.71254475       0.00000000
Si       0.00187335       2.71453302       2.71529738       0.00000000
Si       2.71515204       0.00080798       2.71478126       0.00000000
Si       0.00011403      -2.71512665       2.71509093       0.00000000
Si      -2.71521720       2.71505430      -0.00075697       0.00000000
