10
Lattice="16.28999089631971 0.0 0.0 0.0 16.28999089631971 0.0 0.0 0.0 34.40785480372833" Properties=species:S:1:pos:R:3:initial_magmoms:R:1 pbc="T T T"
Si      -1.34485353      -1.34623818      -1.36778181       0.00000000
Si      -1.63947447       1.05218739       1.34992412       0.00000000
Si       1.36707309       1.37806884      -1.36041852       0.00000000
Si       1.46064285      -1.27905822       1.39534252       0.00000000
Si       0.29375757       1.96918407       2.53782157       0.00000000
Si       2.30855364       0.49686129       2.75228584       0.00000000
Si      -2.70024506      -2.67693244       0.00478269       0.00000000
Si       0.00630423      -2.69588911      -2.72331441       0.00000000
Si      -2.70636196       0.01752804      -2.71997685       0.00000000
Si       2.72424186       0.01710450      -2.72056178       0.00000000
