10
Lattice="16.28999089631971 0.0 0.0 0.0 16.28999089631971 0.0 0.0 0.0 34.40785480372833" Properties=species:S:1:pos:R:3:initial_magmoms:R:1 pbc="T T T"
Si       1.32827031       1.34695657      -1.37886114       0.00000000
Si      -1.29101508       1.41408766       1.37734720       0.00000000
Si      -1.38751704      -1.36414478      -1.37913641       0.00000000
Si       1.52668251      -1.30230584       1.60722620       0.00000000
Si      -2.18382111      -0.30924773       2.65412018       0.00000000
Si      -0.43486155      -2.05347409       2.93034659       0.00000000
Si       2.68589520       2.71445320       0.00416335       0.00000000
Si       2.67835293      -2.72722849       0.01052881       0.00000000
Si       2.68586262      -0.00347466      -2.73907322       0.00000000
Si      -2.75165793       2.69314588      -0.01799532       0.00000000
