10
Lattice="16.28999089631971 0.0 0.0 0.0 16.28999089631971 0.0 0.0 0.0 34.40785480372833" Properties=species:S:1:pos:R:3:initial_magmoms:R:1 pbc="T T T"
Si       1.35589815       1.35821133      -1.35800997       0.00000000
Si      -1.35909099      -1.35855342      -1.35876695       0.00000000
Si      -1.35716877       1.36096434       1.36014326       0.00000000
Si       1.35568638      -1.36329381       1.35969596       0.00000000
Si       2.71327869      -2.71372504      -0.00051612       0.00000000
Si       2.71331127       0.00066789      -2.71495330       0.00000000
Si       2.71217097       2.71616202      -0.00055053       0.00000000
Si      -0.00187335      -2.71453302      -2.71529738       0.00000000
Si      -0.00138465       2.71549413      -2.71543501       0.00000000
Si      -2.71793763      -2.71299361      -0.00275263       0.00000000
