10
Lattice="16.28999089631971 0.0 0.0 0.0 16.28999089631971 0.0 0.0 0.0 34.40785480372833" Properties=species:S:1:pos:R:3:initial_magmoms:R:1 pbc="T T T"
Si       2.06762454       0.49213719      -0.90148630       0.00000000
Si      -1.08748782       2.05071552       0.10724934       0.00000000
Si       0.38608929      -0.84535326       2.14870292       0.00000000
Si      -1.53262836      -1.32776532      -1.20947118       0.00000000
Si      -3.25934392       1.19845530       0.32518882       0.00000000
Si       0.85535532      -3.06173808       1.67053669       0.00000000
Si       2.59037064       2.53548963       0.27977042       0.00000000
Si       1.56991617       1.11865059      -3.10716866       0.00000000
Si      -0.45664128       3.00024333       2.16528751       0.00000000
Si      -3.36466855       0.04023630      -1.79681359       0.00000000
