10
Lattice="16.28999089631971 0.0 0.0 0.0 16.28999089631971 0.0 0.0 0.0 34.40785480372833" Properties=species:S:1:pos:R:3:initial_magmoms:R:1 pbc="T T T"
Si      -0.04184901       2.10198015       0.99400907       0.00000000
Si      -2.04540498      -0.34363755      -1.17282679       0.00000000
Si      -0.31933287      -1.73398905       1.66774965       0.00000000
Si       2.15244657       0.60492915      -0.97821586       0.00000000
Si      -1.57613895      -2.56002237      -1.65099302       0.00000000
Si       3.38362848       0.88018128       1.00577657       0.00000000
Si      -0.57881628       3.53924685      -0.88159855       0.00000000
Si       1.95144426       2.17067508       2.32215301       0.00000000
Si      -1.17415062      -3.55457574       0.40952252       0.00000000
Si       0.55868184      -2.59483410      -2.74306453       0.00000000
