10
Lattice="16.28999089631971 0.0 0.0 0.0 16.28999089631971 0.0 0.0 0.0 34.40785480372833" Properties=species:S:1:pos:R:3:initial_magmoms:R:1 pbc="T T T"
Si       1.26654750      -0.50700996      -1.88992130       0.00000000
Si      -2.24542989       0.39234465      -0.61301068       0.00000000
Si       1.05968079       1.91544336       0.98337704       0.00000000
Si       0.02204037      -1.77160266       1.62119580       0.00000000
Si       3.43420893      -0.33184359      -1.03006852       0.00000000
Si      -2.23612830       2.68501554      -1.08756408       0.00000000
Si       2.15889741       0.81845847       2.90918575       0.00000000
Si      -1.98172737      -1.38815235       2.82602192       0.00000000
Si       0.68465241      -2.71767699      -2.47021009       0.00000000
Si      -2.48106474      -0.56531187      -2.75858248       0.00000000
