10
Lattice="16.28999089631971 0.0 0.0 0.0 16.28999089631971 0.0 0.0 0.0 34.40785480372833" Properties=species:S:1:pos:R:3:initial_magmoms:R:1 pbc="T T T"
Si       0.66466458       2.03577759       0.87103533       0.00000000
Si       1.86424389      -0.34756344      -1.34476294       0.00000000
Si      -1.73853396      -0.16369821      -1.59232759       0.00000000
Si      -0.85304214      -1.53298674       1.62756126       0.00000000
Si      -3.14276454      -0.71941527       1.08735764       0.00000000
Si      -1.33910316       2.41922790       2.07586145       0.00000000
Si       1.32727662       1.08970326      -3.22037056       0.00000000
Si      -0.98204265       1.05241545      -3.49501421       0.00000000
Si      -2.05107390      -2.46640374      -2.14367937       0.00000000
Si       3.85753716      -0.27886851      -0.01661900       0.00000000
