10
Lattice="16.28999089631971 0.0 0.0 0.0 16.28999089631971 0.0 0.0 0.0 34.40785480372833" Properties=species:S:1:pos:R:3:initial_magmoms:R:1 pbc="T T T"
Si       0.68645571       1.44650313       1.67669570       0.00000000
Si      -2.10603214       0.87855228      -0.50366246       0.00000000
Si       1.34237256       0.22934691      -1.93988153       0.00000000
Si      -0.07563447      -2.30461865       0.56315367       0.00000000
Si       0.26316006      -1.55154757      -3.12027806       0.00000000
Si      -2.19038176      -2.40905384       1.52375270       0.00000000
Si       2.23951173       0.15003090       2.81246522       0.00000000
Si       1.79958399       3.07719729       0.50651831       0.00000000
Si      -0.13181542      -3.30932069      -1.56208307       0.00000000
Si      -1.68825880       3.07617102      -1.26259694       0.00000000
