10
Lattice="16.28999089631971 0.0 0.0 0.0 16.28999089631971 0.0 0.0 0.0 34.40785480372833" Properties=species:S:1:pos:R:3:initial_magmoms:R:1 pbc="T T T"
Si      -1.35866745      -1.35606105       1.35656484       0.00000000
Si       1.35752715      -1.35713619      -1.35708096       0.00000000
Si      -1.35741312       1.35746199      -1.35694333       0.00000000
Si       1.35741312       1.35799956       1.35763149       0.00000000
Si      -2.71300176      -0.00294849       2.71299205       0.00000000
Si       0.00060273      -2.71345788      -2.71440277       0.00000000
Si      -2.71375110       0.00004887      -2.71429955       0.00000000
Si       0.00180819       2.71370544      -2.71526297       0.00000000
Si      -2.71378368       2.71521059      -0.00041289       0.00000000
Si      -2.71471221      -2.71428867       0.00017204       0.00000000
