10
Lattice="16.28999089631971 0.0 0.0 0.0 16.28999089631971 0.0 0.0 0.0 34.40785480372833" Properties=species:S:1:pos:R:3:initial_magmoms:R:1 pbc="T T T"
Si      -1.35433431       1.35311256       1.35642721       0.00000000
Si      -1.35604476      -1.35822762      -1.35639280       0.00000000
Si       1.35866745       1.35606105      -1.35656484       0.00000000
Si       1.35656604      -1.35624024       1.36255181       0.00000000
Si      -2.69588260      -0.00234576       2.71519416       0.00000000
Si       0.00967626       2.70630657       2.71746508       0.00000000
Si      -2.71108117       2.71345788       0.00092901       0.00000000
Si       0.00125433       2.71352304      -2.71350817       0.00000000
Si      -2.71323145      -0.00131949      -2.71385225       0.00000000
Si       2.71619460      -0.00107514      -2.71364580       0.00000000
