10
Lattice="16.28999089631971 0.0 0.0 0.0 16.28999089631971 0.0 0.0 0.0 34.40785480372833" Properties=species:S:1:pos:R:3:initial_magmoms:R:1 pbc="T T T"
Si      -1.87282872      -1.40491476      -0.04607214       0.00000000
Si      -0.85773366       2.10996944       0.55919677       0.00000000
Si       1.31567814       0.24424136      -1.93902133       0.00000000
Si       1.11845511      -1.02741030       1.86046816       0.00000000
Si      -2.29954527       1.47163601       2.30869953       0.00000000
Si      -2.76459219      -0.84831804       2.13184306       0.00000000
Si      -3.17287986      -0.34468011      -1.69011477       0.00000000
Si       1.09032228       3.30316307       1.13325774       0.00000000
Si      -0.83313576      -1.48486608       3.28529822       0.00000000
Si       1.66537557      -1.96444368      -2.74041513       0.00000000
