10
Lattice="16.28999089631971 0.0 0.0 0.0 16.28999089631971 0.0 0.0 0.0 34.40785480372833" Properties=species:S:1:pos:R:3:initial_magmoms:R:1 pbc="T T T"
Si      -1.55305602       1.29647223      -1.13576951       0.00000000
Si       0.85773366      -2.10996944      -0.55919677       0.00000000
Si      -1.44181161      -0.63833342       1.74950276       0.00000000
Si       1.94805594       1.19319363       0.57406097       0.00000000
Si       0.11218923      -0.09487296       3.44643029       0.00000000
Si       2.35004427       0.19864026       2.63457651       0.00000000
Si      -2.23951173      -0.15003090      -2.81246522       0.00000000
Si      -1.01509506      -3.51488420      -0.60526891       0.00000000
Si      -0.43992774       2.92716639      -2.30594690       0.00000000
Si       2.17341180      -1.86572807      -2.49821810       0.00000000
