10
Lattice="16.28999089631971 0.0 0.0 0.0 16.28999089631971 0.0 0.0 0.0 34.40785480372833" Properties=species:S:1:pos:R:3:initial_magmoms:R:1 pbc="T T T"
Si       1.35625653       1.35595957       1.35714978       0.00000000
Si      -1.36006839       1.35616483      -1.35800997       0.00000000
Si      -1.35855342      -1.35907911       1.35666807       0.00000000
Si       1.35759231      -1.35891621      -1.35783793       0.00000000
Si      -2.69172702      -0.01042067      -2.72056178       0.00000000
Si       2.71415835       2.71227149      -0.00058493       0.00000000
Si      -2.71489140       2.71171763      -0.00130750       0.00000000
Si      -0.00060273       2.71245068       2.71419633       0.00000000
Si       2.71373481      -0.00111311       2.71405870       0.00000000
Si       2.71169856      -2.71632933      -0.00075697       0.00000000
