10
Lattice="16.28999089631971 0.0 0.0 0.0 16.28999089631971 0.0 0.0 0.0 34.40785480372833" Properties=species:S:1:pos:R:3:initial_magmoms:R:1 pbc="T T T"
Si      -1.35654975      -1.35900954      -1.35873254       0.00000000
Si      -1.35739683       1.35868374       1.35831964       0.00000000
Si       1.35811359       1.35765747      -1.35914543       0.00000000
Si       1.35661491      -1.36133901       1.35959273       0.00000000
Si       2.71608057       2.71225242      -0.00416335       0.00000000
Si      -2.71482624      -2.71447438      -0.00154835       0.00000000
Si       2.71717200      -2.71258474      -0.00116987       0.00000000
Si      -2.71479366      -0.00008145      -2.71598554       0.00000000
Si       2.71484253      -0.00100998      -2.71595113       0.00000000
Si      -0.00009774       2.71464705      -2.71653606       0.00000000
