10
Lattice="16.28999089631971 0.0 0.0 0.0 16.28999089631971 0.0 0.0 0.0 34.40785480372833" Properties=species:S:1:pos:R:3:initial_magmoms:R:1 pbc="T T T"
Si      -0.93973752      -2.18730391      -0.51446653       0.00000000
Si       1.80424782       0.95604381      -1.41357869       0.00000000
Si       1.28229993       0.57866967       2.06388751       0.00000000
Si      -0.03183066       0.27536616      -2.75734380       0.00000000
Si       3.43552842       1.33561710       1.21095072       0.00000000
Si       0.88215237      -3.65742170      -1.26706996       0.00000000
Si       0.27813546       2.47366908       3.18262512       0.00000000
Si       1.30003974      -1.23937904       3.65714412       0.00000000
Si       3.73466169      -0.69410061      -1.62790534       0.00000000
Si      -1.81423359      -3.39365402       1.58974700       0.00000000
