10
Lattice="16.28999089631971 0.0 0.0 0.0 16.28999089631971 0.0 0.0 0.0 34.40785480372833" Properties=species:S:1:pos:R:3:initial_magmoms:R:1 pbc="T T T"
Si       0.93760353      -0.57447988      -2.09836420       0.00000000
Si      -1.54885320       1.87926816      -0.06991680       0.00000000
Si      -1.18460880      -2.14547675       0.03674761       0.00000000
Si       1.74837312       1.00039008       1.45005104       0.00000000
Si      -1.05272496       0.26243516      -3.13603686       0.00000000
Si      -0.28339713      -3.08715278       1.99868459       0.00000000
Si      -0.20399967       3.69553800       0.66073441       0.00000000
Si      -2.19354624       2.12892870      -2.37283581       0.00000000
Si      -3.47226237      -1.68404621       0.64721211       0.00000000
Si       2.60112204      -0.60924763       2.99190228       0.00000000
