10
Lattice="16.28999089631971 0.0 0.0 0.0 16.28999089631971 0.0 0.0 0.0 34.40785480372833" Properties=species:S:1:pos:R:3:initial_magmoms:R:1 pbc="T T T"
Si       1.17374337       1.85308524      -0.74458639       0.00000000
Si       1.14082128      -1.86649354      -0.76320105       0.00000000
Si       0.64469304      -0.24966054       2.30291901       0.00000000
Si      -2.00795427       0.03546333      -1.44299742       0.00000000
Si      -0.41418954       3.23522658       0.32185125       0.00000000
Si      -0.92290995      -3.05339565      -0.76653862       0.00000000
Si      -1.85389974      -1.99264982      -2.69200325       0.00000000
Si      -1.56146166       1.70569332      -3.09811939       0.00000000
Si       2.19354624      -2.12892870       2.37283581       0.00000000
Si      -2.39269149      -2.81827751       1.16917956       0.00000000
