10
Lattice="16.28999089631971 0.0 0.0 0.0 16.28999089631971 0.0 0.0 0.0 34.40785480372833" Properties=species:S:1:pos:R:3:initial_magmoms:R:1 pbc="T T T"
Si      -1.04152691       0.73868634       1.96620355       0.00000000
Si      -1.47568799      -1.28785971      -1.30791211       0.00000000
Si       0.21316214       1.86994539      -1.43718249       0.00000000
Si       2.10653907      -1.07638781       0.19350988       0.00000000
Si       1.99529466       0.85841784      -2.69176239       0.00000000
Si       1.64149215      -3.39634187       0.01665341       0.00000000
Si      -2.26953227       0.09203850      -3.01984147       0.00000000
Si       0.75130392       1.35420399       3.51183966       0.00000000
Si      -2.50725224       2.56515372       1.41650336       0.00000000
Si       3.54835068      -0.43805439      -1.55599288       0.00000000
