10
Lattice="16.28999089631971 0.0 0.0 0.0 16.28999089631971 0.0 0.0 0.0 34.40785480372833" Properties=species:S:1:pos:R:3:initial_magmoms:R:1 pbc="T T T"
Si      -1.65553641      -0.98567043      -1.41523027       0.00000000
Si       1.04342337      -1.74588938       1.30412724       0.00000000
Si      -1.90895994       0.88690905       1.30457454       0.00000000
Si       1.32452361       2.03608710      -0.70491412       0.00000000
Si      -1.09367802       1.17726201      -2.30818341       0.00000000
Si      -0.44564553       2.19294351       2.69040814       0.00000000
Si       2.27758635      -0.58691893       2.91959211       0.00000000
Si      -3.66303456      -1.16871628      -0.10219139       0.00000000
Si       0.83932596       3.65687694       1.05518627       0.00000000
Si       2.78487324      -2.79952514      -0.19368192       0.00000000
