10
Lattice="16.28999089631971 0.0 0.0 0.0 16.28999089631971 0.0 0.0 0.0 34.40785480372833" Properties=species:S:1:pos:R:3:initial_magmoms:R:1 pbc="T T T"
Si       1.34288244       1.23046515       1.63623204       0.00000000
Si      -1.26734571      -1.39307193      -1.60454239       0.00000000
Si       1.33527501       1.30020264      -1.62907520       0.00000000
Si      -2.20850046       0.46362969       1.11474630       0.00000000
Si      -1.95225876      -2.16533196       2.06577994       0.00000000
Si      -0.10782351       3.17477439       1.70356825       0.00000000
Si      -3.03295365      -2.29741128      -0.28414022       0.00000000
Si      -2.82333393       2.56767867      -0.23101447       0.00000000
Si      -1.86497694       1.93500765       2.93117238       0.00000000
Si      -2.61144990      -0.05618421      -3.03849054       0.00000000
