10
Lattice="16.28999089631971 0.0 0.0 0.0 16.28999089631971 0.0 0.0 0.0 34.40785480372833" Properties=species:S:1:pos:R:3:initial_magmoms:R:1 pbc="T T T"
Si       2.37281769      -0.08009793      -0.02257157       0.00000000
Si      -0.96226659      -1.39817070       1.67607636       0.00000000
Si      -0.65544444       2.23780617       0.54818625       0.00000000
Si      -1.52345709      -0.46310841      -2.25089430       0.00000000
Si       3.01368258       2.01448656      -0.91827734       0.00000000
Si       2.96191296      -0.43324884       2.24693740       0.00000000
Si      -3.05558046      -2.02831677       0.81378063       0.00000000
Si      -2.61834057       2.18864295       1.81759595       0.00000000
Si      -0.75158802      -0.35632746       3.84810782       0.00000000
Si       0.84523923       3.47700276       1.92680654       0.00000000
