10
Lattice="16.28999089631971 0.0 0.0 0.0 16.28999089631971 0.0 0.0 0.0 34.40785480372833" Properties=species:S:1:pos:R:3:initial_magmoms:R:1 pbc="T T T"
Si      -1.36904418       1.91845701       0.17517049       0.00000000
Si       2.27726055       0.67790835       0.11977381       0.00000000
Si      -0.44649261      -1.67022999       1.65512196       0.00000000
Si      -0.21067857      -1.04184324      -2.17203146       0.00000000
Si       0.85542048      -3.09281940      -1.63519981       0.00000000
Si       2.73520503       0.14739192       2.35353299       0.00000000
Si      -0.29243808      -3.69834313       0.40611614       0.00000000
Si      -1.86675255       2.54497041      -2.03051187       0.00000000
Si       2.31249582       3.01154859       0.17135121       0.00000000
Si       1.56146166      -1.70569332       3.09811939       0.00000000
