10
Lattice="16.28999089631971 0.0 0.0 0.0 16.28999089631971 0.0 0.0 0.0 34.40785480372833" Properties=species:S:1:pos:R:3:initial_magmoms:R:1 pbc="T T T"
Si       0.60076380      -1.63525536       1.65804663       0.00000000
Si       2.25271641       0.28567773      -0.87089770       0.00000000
Si      -0.75327908       2.20452570       0.72696956       0.00000000
Si      -1.79283083      -0.61551765      -1.54563611       0.00000000
Si       2.90923599      -1.88713134      -1.62140225       0.00000000
Si      -0.75130392      -1.35420399      -3.51183966       0.00000000
Si      -2.42152709       1.82433339       2.40700283       0.00000000
Si      -2.28509834       3.02562315      -0.90623459       0.00000000
Si      -3.46019378      -1.79787843      -0.31995882       0.00000000
Si       1.13033541      -0.55076490       3.72816197       0.00000000
