10
Lattice="16.28999089631971 0.0 0.0 0.0 16.28999089631971 0.0 0.0 0.0 34.40785480372833" Properties=species:S:1:pos:R:3:initial_magmoms:R:1 pbc="T T T"
Si       1.23118191       0.27525213       1.98399242       0.00000000
Si       1.58793291      -1.38214134      -1.06643765       0.00000000
Si       0.13390380       2.08310004      -1.21889894       0.00000000
Si      -2.15244657      -0.60492915       0.97821586       0.00000000
Si       0.41418954      -3.23522658      -0.32185125       0.00000000
Si      -2.19429558       1.49705100       1.97222493       0.00000000
Si       2.59110369       2.03594049       1.32263868       0.00000000
Si       1.12998843      -0.85162491      -3.30019683       0.00000000
Si      -0.20100231       1.56574593       3.30036887       0.00000000
Si       1.16522370       1.48201533      -3.24861943       0.00000000
