10
Lattice="16.28999089631971 0.0 0.0 0.0 16.28999089631971 0.0 0.0 0.0 34.40785480372833" Properties=species:S:1:pos:R:3:initial_magmoms:R:1 pbc="T T T"
Si       1.43218422      -1.29049380      -1.31637644       0.00000000
Si       0.29626623       2.34061236       0.16663733       0.00000000
Si      -1.99329327      -0.06869493      -1.32814394       0.00000000
Si       0.71558712      -0.53952480       2.35143411       0.00000000
Si       2.79210600       0.47019456      -1.97773019       0.00000000
Si      -1.22336271       2.49039891       2.13222155       0.00000000
Si       0.20100231      -1.56574593      -3.30036887       0.00000000
Si       2.96450307       0.53729307       2.09853624       0.00000000
Si      -1.95144426      -2.17067508      -2.32215301       0.00000000
Si       1.34009685       2.03893785      -2.94097863       0.00000000
