10
Lattice="16.28999089631971 0.0 0.0 0.0 16.28999089631971 0.0 0.0 0.0 34.40785480372833" Properties=species:S:1:pos:R:3:initial_magmoms:R:1 pbc="T T T"
Si       0.83396655      -1.82143377       1.42940631       0.00000000
Si      -1.64494791       1.11821076       1.47554727       0.00000000
Si       2.24891595       1.07681787      -0.25289787       0.00000000
Si      -0.71558712       0.53952480      -2.35143411       0.00000000
Si      -1.93894983       3.02992371      -0.21921257       0.00000000
Si      -0.41932089       2.88013716      -2.18479678       0.00000000
Si       1.47129651       3.30796143      -0.67532334       0.00000000
Si       1.31916420      -3.44222361      -0.33069408       0.00000000
Si       0.71659710      -0.75096900      -3.66781056       0.00000000
Si      -0.33070329       2.32829712       3.09906702       0.00000000
