10
Lattice="16.28999089631971 0.0 0.0 0.0 16.28999089631971 0.0 0.0 0.0 34.40785480372833" Properties=species:S:1:pos:R:3:initial_magmoms:R:1 pbc="T T T"
Si      -1.35741312      -1.35550719      -1.35721859       0.00000000
Si       1.35689184      -1.35729909       1.35721859       0.00000000
Si       1.35687555       1.35742941      -1.35783793       0.00000000
Si      -1.35809730       1.35798327       1.35711537       0.00000000
Si      -0.00141723      -2.71358820       2.71450600       0.00000000
Si      -2.71357191      -0.00190593       2.71471245       0.00000000
Si       2.71441899      -2.71435383      -0.00044730       0.00000000
Si      -2.71497285      -2.71425609      -0.00037849       0.00000000
Si       2.71461447      -0.00032580       2.71495330       0.00000000
Si      -2.71599912      -0.00330687      -2.71388666       0.00000000
