10
Lattice="16.28999089631971 0.0 0.0 0.0 16.28999089631971 0.0 0.0 0.0 34.40785480372833" Properties=species:S:1:pos:R:3:initial_magmoms:R:1 pbc="T T T"
Si      -0.59038218       1.38049605      -1.81150575       0.00000000
Si       0.80039286      -2.14586541      -0.56566545       0.00000000
Si      -2.06086419      -0.24301422       1.13470287       0.00000000
Si       1.89938142       1.22448672       0.75521843       0.00000000
Si      -0.55732977       3.41497044      -0.55513664       0.00000000
Si       0.95500125       3.27987747       1.30842823       0.00000000
Si       1.51606143      -2.96764704       1.52698704       0.00000000
Si      -3.40491951      -1.22266224      -0.60636996       0.00000000
Si       0.91248435       0.84478311      -3.52501788       0.00000000
Si      -1.64273247      -2.01738618       2.71206304       0.00000000
