10
Lattice="16.28999089631971 0.0 0.0 0.0 16.28999089631971 0.0 0.0 0.0 34.40785480372833" Properties=species:S:1:pos:R:3:initial_magmoms:R:1 pbc="T T T"
Si      -1.44715147       1.25890749      -1.26521194       0.00000000
Si      -1.37758991      -1.32941061       1.34428811       0.00000000
Si       1.33108848       1.38448710       1.33943660       0.00000000
Si       1.52422272      -1.44923985      -2.10464708       0.00000000
Si       0.29680380       2.42044965      -2.40058714       0.00000000
Si      -0.71045577      -2.19582684      -2.74014816       0.00000000
Si      -2.48753839      -0.42782427      -2.57874801       0.00000000
Si       2.12315715       0.81893088      -2.83745363       0.00000000
Si       2.67965613      -2.67980274      -0.05613989       0.00000000
Si      -0.02837718      -2.68483635       2.70425933       0.00000000
