10
Lattice="16.28999089631971 0.0 0.0 0.0 16.28999089631971 0.0 0.0 0.0 34.40785480372833" Properties=species:S:1:pos:R:3:initial_magmoms:R:1 pbc="T T T"
Si       0.01773981      -1.81804871       1.59325661       0.00000000
Si      -1.00416447       1.89499941       1.11873762       0.00000000
Si       2.15322849       0.75694743      -0.85293679       0.00000000
Si      -1.28229993      -0.57866967      -2.06388751       0.00000000
Si       0.52194789       0.37737414      -3.47746620       0.00000000
Si      -1.03506660      -0.74412720       3.37806185       0.00000000
Si       2.23435269      -1.78727201       2.27030034       0.00000000
Si      -0.41506920       1.54184850       3.38824658       0.00000000
Si       2.00813346       3.17736450      -1.05074766       0.00000000
Si      -0.36329958       3.98958390       0.22303184       0.00000000
