10
Lattice="16.28999089631971 0.0 0.0 0.0 16.28999089631971 0.0 0.0 0.0 34.40785480372833" Properties=species:S:1:pos:R:3:initial_magmoms:R:1 pbc="T T T"
Si       0.79384428      -1.37989821       1.71192936       0.00000000
Si       0.36815400       2.26401678       0.45370223       0.00000000
Si       1.47233907       0.19842849      -1.85227908       0.00000000
Si      -2.11413249      -1.02046099      -0.38381983       0.00000000
Si       1.38798945      -3.08917763       0.17513608       0.00000000
Si       0.09128916      -2.87569718      -1.82950107       0.00000000
Si       2.48269441       1.77790689       1.58265898       0.00000000
Si      -1.25012718      -2.11058290       2.66330708       0.00000000
Si       0.42018426      -1.10752289      -3.42840057       0.00000000
Si      -2.84923503      -0.06437808      -2.32063906       0.00000000
