10
Lattice="16.28999089631971 0.0 0.0 0.0 16.28999089631971 0.0 0.0 0.0 34.40785480372833" Properties=species:S:1:pos:R:3:initial_magmoms:R:1 pbc="T T T"
Si      -0.85274892       1.60963771      -1.54185124       0.00000000
Si       1.39312080      -1.63142788      -1.13480609       0.00000000
Si      -1.91475918      -1.27821181       0.78945426       0.00000000
Si       1.06976430       0.35479131       2.32693571       0.00000000
Si      -1.08981729       3.09971659       0.51278055       0.00000000
Si      -0.76818753       1.98595300       2.59541970       0.00000000
Si       0.38279871      -3.53654338       0.07621344       0.00000000
Si       3.57354449      -0.62856661      -0.15390642       0.00000000
Si       3.20820866       1.77226078       0.43615421       0.00000000
Si      -0.80132139      -2.93443240       2.15778660       0.00000000
