10
Lattice="16.28999089631971 0.0 0.0 0.0 16.28999089631971 0.0 0.0 0.0 34.40785480372833" Properties=species:S:1:pos:R:3:initial_magmoms:R:1 pbc="T T T"
Si      -1.08944262       0.59316777       2.01736806       0.00000000
Si       1.96156035       1.19014740      -0.70543023       0.00000000
Si       0.31890933      -2.37617343       0.39187128       0.00000000
Si      -1.75708827       0.65730150      -1.55702512       0.00000000
Si      -3.18982635      -0.30687102       1.59748878       0.00000000
Si      -1.78882119      -3.39534099      -0.17503286       0.00000000
Si       2.74934705       2.45102598       1.18008686       0.00000000
Si      -1.73705157      -0.94760559      -3.34024760       0.00000000
Si      -1.16012493       2.93694039       2.27890231       0.00000000
Si      -3.90549492       0.51491061      -0.49516372       0.00000000
