10
Lattice="16.28999089631971 0.0 0.0 0.0 16.28999089631971 0.0 0.0 0.0 34.40785480372833" Properties=species:S:1:pos:R:3:initial_magmoms:R:1 pbc="T T T"
Si      -1.32036966       0.72790236       1.75259947       0.00000000
Si      -0.36815400      -2.26401678      -0.45370223       0.00000000
Si       2.11454041      -0.48610989       1.12895675       0.00000000
Si      -0.48966111       0.97674840      -2.19725243       0.00000000
Si       1.10418507      -2.06558829      -2.30598131       0.00000000
Si       1.52195841       0.13203045      -3.06491579       0.00000000
Si      -1.41649695       3.04888527       1.57749780       0.00000000
Si      -3.57568758       0.18189414       1.19054685       0.00000000
Si      -2.59739163      -0.04241916      -2.76415656       0.00000000
Si       0.42569028      -3.64391499       1.25822714       0.00000000
