10
Lattice="16.28999089631971 0.0 0.0 0.0 16.28999089631971 0.0 0.0 0.0 34.40785480372833" Properties=species:S:1:pos:R:3:initial_magmoms:R:1 pbc="T T T"
Si       1.35602847      -1.35519768       1.36303352       0.00000000
Si      -1.35861858       1.36023129       1.36262063       0.00000000
Si      -1.35791811      -1.34355033      -1.38947597       0.00000000
Si       1.37054286       1.35537687      -1.39927189       0.00000000
Si       2.71544526      -2.70990666       0.00240855       0.00000000
Si      -2.71756296      -2.71062342      -0.00003441       0.00000000
Si       2.71502172       2.71520091      -0.00034408       0.00000000
Si      -0.00107514      -2.71155195       2.72001126       0.00000000
Si       2.71441899       0.00309510       2.71959836       0.00000000
Si      -2.71549413       0.00280188       2.72045856       0.00000000
