10
Lattice="16.28999089631971 0.0 0.0 0.0 16.28999089631971 0.0 0.0 0.0 34.40785480372833" Properties=species:S:1:pos:R:3:initial_magmoms:R:1 pbc="T T T"
Si       1.34447886       1.35982404       1.39892782       0.00000000
Si      -1.37054286      -1.35537687       1.39927189       0.00000000
Si      -1.20449889       1.52498835      -1.42425889       0.00000000
Si       1.35290079      -1.43223309      -1.68704215       0.00000000
Si       2.68053579      -2.69700498       0.01953679       0.00000000
Si      -2.72846097      -2.69892720       0.00979592       0.00000000
Si       2.70861975       2.72298753       0.01120320       0.00000000
Si      -2.72551248       2.72665278       0.01493646       0.00000000
Si       2.70340695       0.00622278       2.76237423       0.00000000
Si      -0.01451439      -2.71057455       2.76230542       0.00000000
