10
Lattice="16.28999089631971 0.0 0.0 0.0 16.28999089631971 0.0 0.0 0.0 34.40785480372833" Properties=species:S:1:pos:R:3:initial_magmoms:R:1 pbc="T T T"
Si       1.35588742       1.35640314       1.35728741       0.00000000
Si      -1.35953082      -1.35850455       1.35649603       0.00000000
Si      -1.35892809       1.35360126      -1.36344642       0.00000000
Si       1.35720854      -1.35865116      -1.36014326       0.00000000
Si       2.70204578      -0.00428427      -2.71245873       0.00000000
Si       2.71229219      -2.71508688       0.00075697       0.00000000
Si       2.71307411      -0.00050499       2.71474685       0.00000000
Si       2.71403522       2.71383255       0.00027526       0.00000000
Si      -0.00210195       2.71397916       2.71471245       0.00000000
Si      -0.00331253      -2.71565703       2.71454041       0.00000000
