10
Lattice="16.28999089631971 0.0 0.0 0.0 16.28999089631971 0.0 0.0 0.0 34.40785480372833" Properties=species:S:1:pos:R:3:initial_magmoms:R:1 pbc="T T T"
Si       1.63947447      -1.05218739      -1.34992412       0.00000000
Si      -1.08175374       1.69383420      -1.31479368       0.00000000
Si       1.93323204       0.91699668       1.18789744       0.00000000
Si      -2.06822238      -2.02437459       0.00313112       0.00000000
Si       0.29462094      -2.39842557      -2.71770593       0.00000000
Si      -2.43401917       0.32935122      -2.71626080       0.00000000
Si      -0.59968377      -1.96970535       3.05586652       0.00000000
Si       3.10011732      -2.33124561       0.04541839       0.00000000
Si       3.00654756       0.32588145      -2.71034265       0.00000000
Si      -2.47589171       3.22074477       0.33017796       0.00000000
