10
Lattice="16.28999089631971 0.0 0.0 0.0 16.28999089631971 0.0 0.0 0.0 34.40785480372833" Properties=species:S:1:pos:R:3:initial_magmoms:R:1 pbc="T T T"
Si       2.11474729       0.10443519      -0.96059903       0.00000000
Si      -0.67232088      -2.03361102       0.95647008       0.00000000
Si      -0.59414517       1.70927942       1.53679329       0.00000000
Si      -1.29670029       0.21348045      -2.00463715       0.00000000
Si      -2.87109621      -1.11356811       1.36791944       0.00000000
Si      -1.38798945       3.08917763      -0.17513608       0.00000000
Si       2.19038176       2.40905384      -1.52375270       0.00000000
Si       3.41479844      -0.95579946       0.68344360       0.00000000
Si      -3.50274096      -0.28298988      -0.93764898       0.00000000
Si      -0.23594436      -1.26201888      -3.44784102       0.00000000
