10
Lattice="16.28999089631971 0.0 0.0 0.0 16.28999089631971 0.0 0.0 0.0 34.40785480372833" Properties=species:S:1:pos:R:3:initial_magmoms:R:1 pbc="T T T"
Si      -1.66417011      -1.59431859       0.41089883       0.00000000
Si      -0.01278765       2.14350336       1.05202075       0.00000000
Si      -1.05712326       0.98487711      -1.90299629       0.00000000
Si       1.61190106      -1.82252520      -0.24783992       0.00000000
Si       2.13823259       2.61928539       0.00189243       0.00000000
Si      -1.44684522      -1.95409953       2.73749046       0.00000000
Si      -1.29652110      -0.70024194      -3.51848038       0.00000000
Si      -0.94294665      -3.67259679      -0.48002425       0.00000000
Si       0.76959077      -3.24926856      -1.98189354       0.00000000
Si      -3.79962621      -1.19796660      -0.59976365       0.00000000
