10
Lattice="16.28999089631971 0.0 0.0 0.0 16.28999089631971 0.0 0.0 0.0 34.40785480372833" Properties=species:S:1:pos:R:3:initial_magmoms:R:1 pbc="T T T"
Si      -1.39312080       1.63142788       1.13480609       0.00000000
Si      -1.01032209      -1.90511550       1.21101953       0.00000000
Si      -0.04650795      -0.18738387      -2.53214427       0.00000000
Si       2.18042369       1.00286127       0.98089967       0.00000000
Si      -3.30787998       0.35321607       1.92426036       0.00000000
Si       0.47707385      -3.74186187       0.92822122       0.00000000
Si      -2.24586972       3.24106559      -0.40704515       0.00000000
Si      -0.32335650       1.98621919       3.46174180       0.00000000
Si      -3.00661272      -2.81913111       0.17080069       0.00000000
Si       3.95140733       1.10809467      -0.60471839       0.00000000
