10
Lattice="16.28999089631971 0.0 0.0 0.0 16.28999089631971 0.0 0.0 0.0 34.40785480372833" Properties=species:S:1:pos:R:3:initial_magmoms:R:1 pbc="T T T"
Si       1.91176182      -0.32677740      -1.36791944       0.00000000
Si      -2.00474188       0.45923139      -1.19949290       0.00000000
Si       0.31253994       2.30270553       0.55135177       0.00000000
Si      -0.11135844      -1.65841974       1.77678821       0.00000000
Si      -1.09169064       1.74698847       3.23103700       0.00000000
Si      -3.24808711       2.03853060       0.17104154       0.00000000
Si       2.05107390       2.46640374       2.14367937       0.00000000
Si       1.91184327      -1.29189474       3.10069998       0.00000000
Si       1.52567253       0.51857586      -3.51662236       0.00000000
Si       1.06903125       3.51881919      -1.35133484       0.00000000
