10
Lattice="16.28999089631971 0.0 0.0 0.0 16.28999089631971 0.0 0.0 0.0 34.40785480372833" Properties=species:S:1:pos:R:3:initial_magmoms:R:1 pbc="T T T"
Si       1.45341009      -1.25698527      -1.31289093       0.00000000
Si      -1.34483724      -1.35436689       1.35231547       0.00000000
Si       1.36748034       1.36376622       1.35451757       0.00000000
Si      -1.38307476       1.24776513      -1.48537416       0.00000000
Si       2.00823120       0.59113152      -2.66192939       0.00000000
Si       0.38165841       2.28068145      -2.55675106       0.00000000
Si      -2.70204578       0.00428427       2.71245873       0.00000000
Si      -2.69683298       2.72104902      -0.03871230       0.00000000
Si       0.01024641      -2.71080261       2.71321570       0.00000000
Si      -2.72491694      -2.69894349      -0.03037871       0.00000000
