10
Lattice="16.28999089631971 0.0 0.0 0.0 16.28999089631971 0.0 0.0 0.0 34.40785480372833" Properties=species:S:1:pos:R:3:initial_magmoms:R:1 pbc="T T T"
Si      -1.35798635      -1.35651717      -1.35742504       0.00000000
Si       1.35831884      -1.35325917       1.36169161       0.00000000
Si       1.35840029       1.35863487      -1.35721859       0.00000000
Si      -1.35887663       1.35866745       1.35773471       0.00000000
Si       0.01856246       2.71451673       2.71436837       0.00000000
Si      -2.71420463       0.00063531      -2.71546942       0.00000000
Si       0.00097414      -2.71448415      -2.71519416       0.00000000
Si      -2.71352045      -2.71640637      -0.00268381       0.00000000
Si      -2.71391141       2.71617831      -0.00068816       0.00000000
Si       0.00121361       2.71554300      -2.71467804       0.00000000
