10
Lattice="16.28999089631971 0.0 0.0 0.0 16.28999089631971 0.0 0.0 0.0 34.40785480372833" Properties=species:S:1:pos:R:3:initial_magmoms:R:1 pbc="T T T"
Si      -1.30048120       1.27923741      -1.52967086       0.00000000
Si       1.28731725       1.52837667       1.45593478       0.00000000
Si       1.37932317      -1.43747847      -1.50035535       0.00000000
Si      -1.83660302      -0.75531843       1.50906054       0.00000000
Si       2.62466109       0.00273672       2.66956931       0.00000000
Si      -2.56961474       2.73271266      -0.22471783       0.00000000
Si      -2.72636675      -2.60885979       0.15707194       0.00000000
Si      -3.61115810       0.97480989       1.02356544       0.00000000
Si       0.04106709       2.63469573      -2.88843780       0.00000000
Si       2.76604200       2.79997407       0.02511775       0.00000000
