10
Lattice="16.28999089631971 0.0 0.0 0.0 16.28999089631971 0.0 0.0 0.0 34.40785480372833" Properties=species:S:1:pos:R:3:initial_magmoms:R:1 pbc="T T T"
Si       0.23345199      -1.13490801       2.00804353       0.00000000
Si      -1.83265988       1.41411861       0.47145669       0.00000000
Si       2.18701884       0.88803306      -0.39145838       0.00000000
Si      -0.78778670      -1.26087858      -1.88551709       0.00000000
Si      -2.23176488       1.98278622      -1.71578305       0.00000000
Si      -1.15292705       0.60947406      -3.26011166       0.00000000
Si       3.33986214      -1.16033670      -0.66868262       0.00000000
Si       1.34230903      -3.14467047       1.64789631       0.00000000
Si      -2.74934705      -2.45102598      -1.18008686       0.00000000
Si       1.07576228       0.29183535       3.74209716       0.00000000
