10
Lattice="16.28999089631971 0.0 0.0 0.0 16.28999089631971 0.0 0.0 0.0 34.40785480372833" Properties=species:S:1:pos:R:3:initial_magmoms:R:1 pbc="T T T"
Si       1.87248663      -0.35772840       1.39651238       0.00000000
Si      -1.60809993       0.46278328       1.73185152       0.00000000
Si       0.54496566       2.15489726      -1.01110979       0.00000000
Si      -0.73596591      -1.98770580      -1.38667173       0.00000000
Si       1.30434030       1.25485847      -3.03763034       0.00000000
Si      -0.52888743       2.24367776       2.91224805       0.00000000
Si      -1.91880724      -1.00530477      -3.07589190       0.00000000
Si       1.67909175       1.27867608       3.13717232       0.00000000
Si       1.54191366      -2.47063914       2.46790476       0.00000000
Si       3.62841831      -1.14372090      -0.32807908       0.00000000
