10
Lattice="10.86 0.0 0.0 0.0 10.86 0.0 0.0 0.0 10.86" Properties=species:S:1:pos:R:3:initial_magmoms:R:1 pbc="T T T"
Si       1.35260214       1.23281634       1.30102800       0.00000000
Si      -1.36239786      -1.48218366       1.30102800       0.00000000
Si       1.35260214      -1.48218366      -1.41397200       0.00000000
Si      -2.72837952       2.27161878       0.12815886       0.00000000
Si      -0.17304324       2.67436188       2.44379322       0.00000000
Si       0.00061902       2.53100988      -2.72087526       0.00000000
Si       2.71010214       2.59031634      -0.05647200       0.00000000
Si       2.71010214      -0.12468366       2.65852800       0.00000000
Si      -2.76482568      -0.10477728      -2.65385820       0.00000000
Si      -2.73812094      -0.14212482       2.68498296       0.00000000
