10
Lattice="10.86 0.0 0.0 0.0 10.86 0.0 0.0 0.0 10.86" Properties=species:S:1:pos:R:3:initial_magmoms:R:1 pbc="T T T"
Si       1.34515218       1.35114690       1.35953082       0.00000000
Si      -1.36984782       1.35114690      -1.35546918       0.00000000
Si      -1.36984782      -1.36385310       1.35953082       0.00000000
Si       2.53450680      -2.63730756      -0.21270396       0.00000000
Si      -2.63520072      -0.02557530      -2.62642584       0.00000000
Si       2.57519922       0.04333140      -2.76531438       0.00000000
Si       2.70265218       2.70864690       0.00203082       0.00000000
Si       2.70265218      -0.00635310       2.71703082       0.00000000
Si      -0.01234782       2.70864690      -2.71296918       0.00000000
Si      -0.01234782       2.70864690       2.71703082       0.00000000
