10
Lattice="16.28999089631971 0.0 0.0 0.0 16.28999089631971 0.0 0.0 0.0 34.51877397758722" Properties=species:S:1:pos:R:3:initial_magmoms:R:1 pbc="T T T"
Si       1.35562122       1.16260590       1.53367486       0.00000000
Si       1.74596220      -0.43456737      -1.54374947       0.00000000
Si      -1.61098326       1.10373384      -1.44806338       0.00000000
Si      -1.31937597      -1.50951189       1.43152339       0.00000000
Si      -2.56424148      -1.11040689      -1.70702336       0.00000000
Si       2.97945729       2.11093150       0.12205845       0.00000000
Si      -0.13211190       2.40589453       2.87774347       0.00000000
Si      -3.02243031       2.41641788       0.02941001       0.00000000
Si       2.58489720      -0.33960952       2.88456783       0.00000000
Si      -2.30163039      -3.16973982       0.06023529       0.00000000
