10
Lattice="16.28999089631971 0.0 0.0 0.0 16.28999089631971 0.0 0.0 0.0 34.51877397758722" Properties=species:S:1:pos:R:3:initial_magmoms:R:1 pbc="T T T"
Si      -1.35710361      -1.35146727      -1.37868060       0.00000000
Si       1.35311256       1.36642149      -1.37895675       0.00000000
Si      -1.55942541       1.22963436       1.36169736       0.00000000
Si       1.35949824      -1.43583318       1.42963034       0.00000000
Si       2.70058878      -2.70938212      -0.03876460       0.00000000
Si      -0.26907822       2.89470042       2.49180813       0.00000000
Si       2.72945466       2.69524566      -0.00849162       0.00000000
Si      -0.25679556      -2.50570011       2.89719684       0.00000000
Si      -2.73049885      -2.71663606       0.00507426       0.00000000
Si      -0.00205254      -2.71026993      -2.74203486       0.00000000
