10
Lattice="16.28999089631971 0.0 0.0 0.0 16.28999089631971 0.0 0.0 0.0 34.51877397758722" Properties=species:S:1:pos:R:3:initial_magmoms:R:1 pbc="T T T"
Si      -1.99340730      -1.09188612      -0.42737718       0.00000000
Si      -0.41425470       0.80707176       2.14951978       0.00000000
Si       1.80898821      -1.32006015      -0.70269907       0.00000000
Si       0.52779600       2.10572685      -1.00674061       0.00000000
Si      -1.45500651      -1.12244616      -2.79156933       0.00000000
Si      -2.26054701       2.06444799       1.40160108       0.00000000
Si       1.70970066       1.79760150       2.32708445       0.00000000
Si       2.50061274       2.37529377       0.14211387       0.00000000
Si      -1.25278245       3.37383819      -0.28692021       0.00000000
Si       3.46511106       0.46587771      -0.96390278       0.00000000
