10
Lattice="16.28999089631971 0.0 0.0 0.0 16.28999089631971 0.0 0.0 0.0 34.51877397758722" Properties=species:S:1:pos:R:3:initial_magmoms:R:1 pbc="T T T"
Si      -0.08101017       1.93401396      -1.35089297       0.00000000
Si      -1.86030171      -1.42089525       0.42202677       0.00000000
Si       1.90778706      -1.21287195      -0.76852641       0.00000000
Si       1.00556541       1.04976018       1.90167484       0.00000000
Si       3.15538929       0.84398490      -0.66203594       0.00000000
Si       0.03666879      -0.13678713       3.63486345       0.00000000
Si       0.33324453       1.12694220      -3.50041275       0.00000000
Si      -0.85134798      -3.30520027       1.46459788       0.00000000
Si       2.04294519       2.92454370      -1.17332830       0.00000000
Si       3.35038059       0.75955383       1.66318450       0.00000000
