10
Lattice="16.28999089631971 0.0 0.0 0.0 16.28999089631971 0.0 0.0 0.0 34.51877397758722" Properties=species:S:1:pos:R:3:initial_magmoms:R:1 pbc="T T T"
Si      -1.11798270       1.61140680      -1.34744110       0.00000000
Si       1.23181722       1.51115814       1.40254832       0.00000000
Si      -1.52886537      -1.20565548       1.41676316       0.00000000
Si       2.01632733      -0.98249877      -1.12061810       0.00000000
Si      -0.08837325       1.06627824      -3.53934995       0.00000000
Si       3.52891899       1.04484060      -1.13974152       0.00000000
Si      -2.78627418       2.67395463       0.19478955       0.00000000
Si      -0.14638194      -2.52998361       2.95220050       0.00000000
Si       2.56038075       0.18520101       2.96136179       0.00000000
Si      -3.03670035      -2.51946027       0.10386705       0.00000000
