10
Lattice="16.28999089631971 0.0 0.0 0.0 16.28999089631971 0.0 0.0 0.0 34.51877397758722" Properties=species:S:1:pos:R:3:initial_magmoms:R:1 pbc="T T T"
Si       0.04551426      -0.78667668      -2.28932089       0.00000000
Si       0.94885992      -1.84244787       1.31713359       0.00000000
Si      -2.01632733       0.98249877       1.12061810       0.00000000
Si       1.51259166       2.02733937      -0.01912341       0.00000000
Si       1.90786851      -0.24019605       2.79167431       0.00000000
Si       2.24261172      -0.16925310      -2.81179734       0.00000000
Si      -0.78451011       2.49365691       2.52316642       0.00000000
Si       3.26246346       0.99199584       1.28516919       0.00000000
Si      -1.97835534      -0.09788661      -3.19927080       0.00000000
Si      -2.10470058       2.04877701      -2.41873184       0.00000000
