10
Lattice="16.28999089631971 0.0 0.0 0.0 16.28999089631971 0.0 0.0 0.0 34.51877397758722" Properties=species:S:1:pos:R:3:initial_magmoms:R:1 pbc="T T T"
Si       1.35417141       1.35086454       1.39385852       0.00000000
Si      -1.36023129      -1.36125756       1.39458341       0.00000000
Si       1.37028222      -1.38160377      -1.53057365       0.00000000
Si      -1.44101340       1.46210895      -1.44842582       0.00000000
Si      -2.64780918      -0.21880728      -2.73833242       0.00000000
Si       2.69884575      -2.70756090       0.02823982       0.00000000
Si       2.71389771       2.70951570      -0.00302385       0.00000000
Si      -2.71666701      -2.72652246       0.01403534       0.00000000
Si      -0.00087966       2.70971118       2.75614269       0.00000000
Si      -2.73857706       2.72826549       0.02675897       0.00000000
