10
Lattice="16.28999089631971 0.0 0.0 0.0 16.28999089631971 0.0 0.0 0.0 34.51877397758722" Properties=species:S:1:pos:R:3:initial_magmoms:R:1 pbc="T T T"
Si      -1.35721764      -1.35788553      -1.35651954       0.00000000
Si      -1.35760860       1.35733167       1.35862518       0.00000000
Si       1.35773892      -1.35803214       1.35786577       0.00000000
Si       1.35930276       1.35755973      -1.35755510       0.00000000
Si       0.00063531      -2.71381626       2.71435079       0.00000000
Si      -2.71482135       2.71432125       0.00027615       0.00000000
Si       2.71500543       2.71476108       0.00006904       0.00000000
Si       2.71482624       0.00003258       2.71542087       0.00000000
Si       2.71502172      -2.71544526       0.00013808       0.00000000
Si      -2.71505104      -2.71546155       0.00027615       0.00000000
