10
Lattice="16.28999089631971 0.0 0.0 0.0 16.28999089631971 0.0 0.0 0.0 34.51877397758722" Properties=species:S:1:pos:R:3:initial_magmoms:R:1 pbc="T T T"
Si       1.66514751      -0.87674409       1.35123816       0.00000000
Si      -0.95671170      -1.70023617      -1.26994640       0.00000000
Si       1.75031163       1.07655723      -1.28171731       0.00000000
Si      -1.98048933      -0.22617036       1.59842724       0.00000000
Si      -0.48039210      -1.91008395       2.47461777       0.00000000
Si      -1.50873093       2.03831883       2.29104683       0.00000000
Si      -2.36543832      -0.35109837      -2.60040425       0.00000000
Si       0.34810101       2.37783501      -2.60896491       0.00000000
Si       2.53791684       1.12862007       2.43619835       0.00000000
Si      -2.45798181       2.86638840       0.20410962       0.00000000
