10
Lattice="16.28999089631971 0.0 0.0 0.0 16.28999089631971 0.0 0.0 0.0 34.51877397758722" Properties=species:S:1:pos:R:3:initial_magmoms:R:1 pbc="T T T"
Si       0.13833468       0.51649074      -2.28417759       0.00000000
Si      -0.28623159       1.71408267       1.65731630       0.00000000
Si      -2.17756575      -0.90026685      -0.49900368       0.00000000
Si       1.86338052      -1.33470486       0.85358072       0.00000000
Si      -0.51508980      -1.60446726      -3.15926352       0.00000000
Si      -1.52285436      -2.91385746      -1.47074222       0.00000000
Si      -2.94998868      -1.39668831       1.60374314       0.00000000
Si      -1.66268772       1.99910880      -2.69080897       0.00000000
Si      -0.62314137       0.38752281       3.68553704       0.00000000
Si       2.28507975       1.23641100      -2.77814152       0.00000000
