10
Lattice="16.28999089631971 0.0 0.0 0.0 16.28999089631971 0.0 0.0 0.0 34.51877397758722" Properties=species:S:1:pos:R:3:initial_magmoms:R:1 pbc="T T T"
Si      -1.75425381       1.50314346      -0.60846277       0.00000000
Si       0.28623159      -1.71408267      -1.65731630       0.00000000
Si       1.71483201       1.68599871       0.27190453       0.00000000
Si      -0.33690978      -1.32655986       2.02822074       0.00000000
Si       3.48547356       0.90345969      -1.10021750       0.00000000
Si       2.14961211      -3.04878753      -0.80373558       0.00000000
Si      -2.46145158      -0.71273637       2.86371361       0.00000000
Si      -1.89133416      -2.61434952      -2.15631998       0.00000000
Si      -1.52945181       2.15935353      -2.89992382       0.00000000
Si       2.27817279       2.04657786       2.53578507       0.00000000
