10
Lattice="16.28999089631971 0.0 0.0 0.0 16.28999089631971 0.0 0.0 0.0 34.51877397758722" Properties=species:S:1:pos:R:3:initial_magmoms:R:1 pbc="T T T"
Si       1.35949824      -1.35637056       1.36231870       0.00000000
Si      -1.35747828       1.35920502       1.36283648       0.00000000
Si      -1.37819916      -1.33781625      -1.36706503       0.00000000
Si       1.37709144       1.37383344      -1.38093123       0.00000000
Si      -2.55166234       0.24132006      -2.81654713       0.00000000
Si      -2.71678756      -2.71067229       0.00193305       0.00000000
Si       2.71371852       2.71399545       0.00783577       0.00000000
Si      -2.71541920       2.71419093       0.00431485       0.00000000
Si       2.71454931      -2.71521720       0.00003452       0.00000000
Si       0.00019548      -2.71393029       2.71987380       0.00000000
