10
Lattice="16.28999089631971 0.0 0.0 0.0 16.28999089631971 0.0 0.0 0.0 34.51877397758722" Properties=species:S:1:pos:R:3:initial_magmoms:R:1 pbc="T T T"
Si      -1.27182872       1.33195185       1.42096612       0.00000000
Si       2.04257052      -0.62667630       0.98675422       0.00000000
Si       0.74844405       1.36754550      -1.80585067       0.00000000
Si      -0.85161514      -2.07661662      -0.84522717       0.00000000
Si      -1.80455081      -1.36757808      -2.89012049       0.00000000
Si       0.38237517       2.84519511       2.29784703       0.00000000
Si      -0.40569593       0.44577585      -3.66641363       0.00000000
Si       3.05543385       0.80518212      -1.97464757       0.00000000
Si      -2.43594863      -2.73376825       0.80977637       0.00000000
Si       3.61569582       1.01729421       0.28923297       0.00000000
