10
Lattice="16.28999089631971 0.0 0.0 0.0 16.28999089631971 0.0 0.0 0.0 34.51877397758722" Properties=species:S:1:pos:R:3:initial_magmoms:R:1 pbc="T T T"
Si       1.45655406       1.04580613      -1.46390750       0.00000000
Si       1.77699465      -1.06349265       1.17885131       0.00000000
Si      -1.19105964      -1.68555888      -1.40712409       0.00000000
Si      -1.09885824       1.73924487       1.60198268       0.00000000
Si       3.33285255       0.72299907       0.94477937       0.00000000
Si       2.37565215       2.69652347      -0.02523324       0.00000000
Si       0.04209336       2.25120699      -2.81918437       0.00000000
Si       0.68318631      -0.98789076       3.40921410       0.00000000
Si      -1.25990118       0.40123899       3.56158005       0.00000000
Si      -2.91529098       2.45488901       0.11677708       0.00000000
