10
Lattice="16.28999089631971 0.0 0.0 0.0 16.28999089631971 0.0 0.0 0.0 34.51877397758722" Properties=species:S:1:pos:R:3:initial_magmoms:R:1 pbc="T T T"
Si      -1.74596220       0.43456737       1.54374947       0.00000000
Si      -0.06574644       1.29394143      -2.00916636       0.00000000
Si       0.43875486      -2.27493108      -0.91819990       0.00000000
Si       1.15688322      -0.49904415      -2.77617395       0.00000000
Si       1.23349509       2.54549888       1.66580793       0.00000000
Si       1.22663700      -2.87808462       1.31381979       0.00000000
Si      -0.39034098       1.59717327       3.07742433       0.00000000
Si       3.09980781       0.52144683       1.69266355       0.00000000
Si      -3.35694546       1.53830121       0.09568609       0.00000000
Si       2.10914775      -1.33468857       2.93027417       0.00000000
