10
Lattice="16.28999089631971 0.0 0.0 0.0 16.28999089631971 0.0 0.0 0.0 34.51877397758722" Properties=species:S:1:pos:R:3:initial_magmoms:R:1 pbc="T T T"
Si      -1.35690813      -1.35490749      -1.35862518       0.00000000
Si       1.35972630      -1.35451905       1.35665761       0.00000000
Si       1.35811359       1.35958784      -1.35848711       0.00000000
Si      -1.36008468       1.36322051       1.36021305       0.00000000
Si       2.69684208      -0.00321728       2.72066773       0.00000000
Si      -2.71378368      -2.71155099      -0.00307217       0.00000000
Si      -2.72595231       0.00204765       2.70144076       0.00000000
Si       2.71456560      -2.71339176      -0.00189853       0.00000000
Si       0.00081450      -2.71270758      -2.71545539       0.00000000
Si      -2.71437012       0.00221870      -2.71524828       0.00000000
