10
Lattice="16.28999089631971 0.0 0.0 0.0 16.28999089631971 0.0 0.0 0.0 34.51877397758722" Properties=species:S:1:pos:R:3:initial_magmoms:R:1 pbc="T T T"
Si       1.70206065       0.87879663      -1.35092749       0.00000000
Si      -0.91909809      -1.65071734      -1.43867427       0.00000000
Si       0.95720040      -1.97352440       0.97001261       0.00000000
Si      -1.94290830       1.67371605       0.06203027       0.00000000
Si      -2.37565215      -2.69652347       0.02523324       0.00000000
Si       0.39545604       2.28330414      -2.75056100       0.00000000
Si      -2.33355879      -0.44531647      -2.79395113       0.00000000
Si      -0.99926118       3.55503186      -1.15341096       0.00000000
Si       3.46835277       1.83578526      -0.06765683       0.00000000
Si      -3.47451039      -0.95727859       1.62721591       0.00000000
