10
Lattice="16.28999089631971 0.0 0.0 0.0 16.28999089631971 0.0 0.0 0.0 34.51877397758722" Properties=species:S:1:pos:R:3:initial_magmoms:R:1 pbc="T T T"
Si      -1.98834111       1.33495410      -0.10704278       0.00000000
Si       2.00270889       1.28105049      -0.33973396       0.00000000
Si       0.37864476      -0.55315122       2.30747777       0.00000000
Si      -0.57567231      -2.20640135      -0.78920317       0.00000000
Si      -1.64633256       0.24841110       3.17880115       0.00000000
Si       2.12625225       2.56952433       1.70132776       0.00000000
Si      -2.22780411       2.29565685       2.01327410       0.00000000
Si       3.77603829      -0.35681616      -0.19641193       0.00000000
Si      -3.91165254       0.00577806      -0.56220759       0.00000000
Si       1.29476178      -3.58621322      -1.09196751       0.00000000
