10
Lattice="16.28999089631971 0.0 0.0 0.0 16.28999089631971 0.0 0.0 0.0 34.51877397758722" Properties=species:S:1:pos:R:3:initial_magmoms:R:1 pbc="T T T"
Si      -1.62383607      -0.94832561       1.41161640       0.00000000
Si       0.95900859       1.60225182       1.47454071       0.00000000
Si      -0.94885992       1.84244787      -1.31713359       0.00000000
Si       1.86631272      -2.02405205       0.02685562       0.00000000
Si      -1.23349509      -2.54549888      -1.66580793       0.00000000
Si       2.33175060       0.28201248       2.78626866       0.00000000
Si       2.33380314      -0.21923082      -2.79654004       0.00000000
Si      -2.97945729      -2.11093150      -0.12205845       0.00000000
Si       2.31360354       2.83444371      -0.03196440       0.00000000
Si      -0.39456009      -2.45054103       2.76250938       0.00000000
