10
Lattice="16.28999089631971 0.0 0.0 0.0 16.28999089631971 0.0 0.0 0.0 34.51877397758722" Properties=species:S:1:pos:R:3:initial_magmoms:R:1 pbc="T T T"
Si      -0.25014924      -2.15063138      -1.00629186       0.00000000
Si       1.25582868       1.51887960       1.38734482       0.00000000
Si       2.25194589       0.73925649      -0.77087369       0.00000000
Si      -1.04005134       1.89242559      -1.33239090       0.00000000
Si       0.79656471      -2.70307205       1.04015480       0.00000000
Si      -0.46749042      -1.80482123       2.82339566       0.00000000
Si      -3.23714880       1.27500201      -0.80991445       0.00000000
Si       1.84238271       0.01607823      -3.07172386       0.00000000
Si      -2.33380314       0.21923082       2.79654004       0.00000000
Si      -0.04851162       1.44790407      -3.46078518       0.00000000
