10
Lattice="16.28999089631971 0.0 0.0 0.0 16.28999089631971 0.0 0.0 0.0 34.51877397758722" Properties=species:S:1:pos:R:3:initial_magmoms:R:1 pbc="T T T"
Si       1.35746199       1.35725022       1.35758962       0.00000000
Si       1.35799956      -1.35777150      -1.35669213       0.00000000
Si      -1.35826020      -1.35772263       1.35734799       0.00000000
Si      -1.35892809       1.35643572      -1.36262936       0.00000000
Si      -2.71397916       2.71528236      -0.00034519       0.00000000
Si      -0.00035838       2.71484253       2.71469598       0.00000000
Si       2.71466334       2.71518462       0.00051778       0.00000000
Si       2.71454931      -0.00006516       2.71535183       0.00000000
Si      -0.01425375      -2.70198972      -2.72824806       0.00000000
Si      -0.00087966      -2.71500543       2.71538635       0.00000000
