10
Lattice="16.28999089631971 0.0 0.0 0.0 16.28999089631971 0.0 0.0 0.0 34.51877397758722" Properties=species:S:1:pos:R:3:initial_magmoms:R:1 pbc="T T T"
Si       1.35668007       1.35679410      -1.35700280       0.00000000
Si      -1.35752715       1.35617508       1.35962623       0.00000000
Si      -1.35874890      -1.35814617      -1.35696828       0.00000000
Si       1.35454608      -1.35899325       1.36145573       0.00000000
Si       2.71414206       2.71432125       0.00003452       0.00000000
Si       2.71379997      -0.00061902      -2.71497213       0.00000000
Si      -0.00040725       2.71410948      -2.71476502       0.00000000
Si       0.00648342       2.69931816       2.72988425       0.00000000
Si      -0.00141723      -2.71606428      -2.71455790       0.00000000
Si      -2.71632492       2.71461447       0.00027615       0.00000000
