10
Lattice="16.28999089631971 0.0 0.0 0.0 16.28999089631971 0.0 0.0 0.0 34.51877397758722" Properties=species:S:1:pos:R:3:initial_magmoms:R:1 pbc="T T T"
Si       1.69109748      -1.68972912      -0.14097475       0.00000000
Si      -0.93108753       1.01239092      -1.96750218       0.00000000
Si       2.08968120       1.36106208       0.21066820       0.00000000
Si      -1.32502860      -0.31910481       2.30019431       0.00000000
Si       0.83295657      -0.42173181       3.17238066       0.00000000
Si       1.74952971      -2.37092805       2.14537752       0.00000000
Si       2.18502657       1.47554820       2.59156744       0.00000000
Si       3.70916784      -0.32250942      -0.42817111       0.00000000
Si      -2.02960368       2.96230392      -1.09483257       0.00000000
Si      -2.02544973      -0.65643813      -3.43085738       0.00000000
