10
Lattice="16.28999089631971 0.0 0.0 0.0 16.28999089631971 0.0 0.0 0.0 34.51877397758722" Properties=species:S:1:pos:R:3:initial_magmoms:R:1 pbc="T T T"
Si      -2.19709746      -0.61742358       0.52247645       0.00000000
Si       0.99153972      -0.44452152      -2.12839427       0.00000000
Si      -0.17171289       2.36294595       0.45036670       0.00000000
Si       1.04005134      -1.89242559       1.33239090       0.00000000
Si       3.11481090       1.15364151      -0.29610221       0.00000000
Si       3.29199723      -1.15316910       0.56151721       0.00000000
Si       2.29588002      -0.37354599       2.71973572       0.00000000
Si      -2.24261172       0.16925310       2.81179734       0.00000000
Si      -0.73002006       2.19659247       2.79267393       0.00000000
Si       1.59904269       1.76495634      -2.77900449       0.00000000
