10
Lattice="16.28999089631971 0.0 0.0 0.0 16.28999089631971 0.0 0.0 0.0 34.51877397758722" Properties=species:S:1:pos:R:3:initial_magmoms:R:1 pbc="T T T"
Si      -1.29539709      -1.40584329      -1.38358227       0.00000000
Si       1.39450545       1.31072598      -1.41319940       0.00000000
Si      -0.06429663       1.00548396       2.19418709       0.00000000
Si      -2.00546190       1.15075818       0.89983590       0.00000000
Si       2.14454592       1.81101210       1.95162353       0.00000000
Si      -3.56131980      -0.63573354       1.13390784       0.00000000
Si       2.19012534       3.12381017      -0.10500617       0.00000000
Si      -2.57717574      -0.02749752      -2.83734125       0.00000000
Si      -2.60441262      -2.81975013       0.09893086       0.00000000
Si       0.12657330       2.67370118      -2.84490087       0.00000000
