10
Lattice="16.28999089631971 0.0 0.0 0.0 16.28999089631971 0.0 0.0 0.0 34.51877397758722" Properties=species:S:1:pos:R:3:initial_magmoms:R:1 pbc="T T T"
Si       1.55585790       1.78649172      -0.23407194       0.00000000
Si      -1.77699465       1.06349265      -1.17885131       0.00000000
Si      -1.09380834       0.07560189       2.23036279       0.00000000
Si       0.95690718      -2.18401659      -1.03497698       0.00000000
Si      -0.32044059       2.10929878      -2.64275881       0.00000000
Si      -1.47924603      -2.25854334       2.13740368       0.00000000
Si       2.26592271      -0.77010975      -2.51749011       0.00000000
Si       0.46801170      -3.35083671       1.06348950       0.00000000
Si       3.56131980       0.63573354      -1.13390784       0.00000000
Si      -2.96805429      -0.62206623      -2.58597540       0.00000000
