10
Lattice="16.28999089631971 0.0 0.0 0.0 16.28999089631971 0.0 0.0 0.0 34.51877397758722" Properties=species:S:1:pos:R:3:initial_magmoms:R:1 pbc="T T T"
Si      -1.59011577       0.16291419       1.74675450       0.00000000
Si      -1.47742155      -1.44497187      -1.17412223       0.00000000
Si       0.50241618       2.32962380      -0.31867750       0.00000000
Si       2.02018806      -1.09432962       0.76766344       0.00000000
Si      -1.19746161      -3.04466616       0.58464480       0.00000000
Si       0.91197936       3.05280206       1.98217267       0.00000000
Si      -1.33996653       2.31354557       2.75304636       0.00000000
Si       1.95657561       2.44352348      -2.23792241       0.00000000
Si      -0.54340182      -0.38952648       3.79320115       0.00000000
Si      -3.75038154      -0.51176664       1.10760452       0.00000000
