10
Lattice="16.28999089631971 0.0 0.0 0.0 16.28999089631971 0.0 0.0 0.0 34.51877397758722" Properties=species:S:1:pos:R:3:initial_magmoms:R:1 pbc="T T T"
Si       0.88251075       1.54339605       1.61645438       0.00000000
Si      -0.78788214       0.60315354      -2.23201969       0.00000000
Si      -1.70290773      -1.00053180       1.49396789       0.00000000
Si       1.85054400      -1.53415962      -1.18910339       0.00000000
Si      -1.22663700       2.87808462      -1.31381979       0.00000000
Si      -2.93544171      -0.68945796      -2.15707939       0.00000000
Si       3.02202306       0.27492633      -2.27416714       0.00000000
Si       2.33445474       0.27839610       3.09961991       0.00000000
Si       1.87317081       3.39953145       0.37884376       0.00000000
Si      -0.38289645      -2.43918315       3.08557076       0.00000000
