10
Lattice="16.28999089631971 0.0 0.0 0.0 16.28999089631971 0.0 0.0 0.0 34.51877397758722" Properties=species:S:1:pos:R:3:initial_magmoms:R:1 pbc="T T T"
Si       2.32295400      -0.14156010      -0.08557209       0.00000000
Si       0.11520288       2.22635430       0.86977003       0.00000000
Si      -1.17147906      -1.80908595       1.08506375       0.00000000
Si      -0.53885691      -0.42878538      -2.33878632       0.00000000
Si      -0.93151107       2.77879497      -1.17667662       0.00000000
Si      -2.61017928      -1.34361549      -1.77050343       0.00000000
Si       2.56588677      -0.54068139       2.50168050       0.00000000
Si       2.67879276       1.52155116      -2.15576768       0.00000000
Si      -3.02202306      -0.27492633       2.27416714       0.00000000
Si      -3.80990520       0.32822721       0.04214745       0.00000000
