10
Lattice="16.28999089631971 0.0 0.0 0.0 16.28999089631971 0.0 0.0 0.0 34.51877397758722" Properties=species:S:1:pos:R:3:initial_magmoms:R:1 pbc="T T T"
Si      -0.40956318      -0.72317826      -2.30085017       0.00000000
Si      -0.17718633       2.30681061      -0.85761942       0.00000000
Si      -2.25194589      -0.73925649       0.77087369       0.00000000
Si      -0.99611721       0.77962311       2.15821851       0.00000000
Si       2.20103964      -1.23554763       2.24354897       0.00000000
Si      -3.29199723       1.15316910      -0.56151721       0.00000000
Si      -2.30045751       0.70864758      -2.68991148       0.00000000
Si       0.44992980      -0.35989497       3.60559151       0.00000000
Si       2.72538216      -2.52652687      -0.42844726       0.00000000
Si      -0.91197936      -3.05280206      -1.98217267       0.00000000
