10
Lattice="16.28999089631971 0.0 0.0 0.0 16.28999089631971 0.0 0.0 0.0 34.51877397758722" Properties=species:S:1:pos:R:3:initial_magmoms:R:1 pbc="T T T"
Si       0.26999046      -0.58489245       2.25041821       0.00000000
Si       1.67795145       1.19151576      -1.17519232       0.00000000
Si      -1.29034719      -1.66506606      -1.13011077       0.00000000
Si       0.65417382       2.66558157       1.69318133       0.00000000
Si       2.15427105       0.98166798       2.56937186       0.00000000
Si      -2.45370406      -0.15900669      -2.49815959       0.00000000
Si       0.26922483       2.54065356      -2.50565017       0.00000000
Si      -0.70654617       1.31245272       3.30500186       0.00000000
Si       0.26907822      -2.89470042      -2.49180813       0.00000000
Si       2.99853288      -0.19945476      -2.50029975       0.00000000
