10
Lattice="16.28999089631971 0.0 0.0 0.0 16.28999089631971 0.0 0.0 0.0 34.51877397758722" Properties=species:S:1:pos:R:3:initial_magmoms:R:1 pbc="T T T"
Si      -0.73977777      -0.72148410      -2.10233259       0.00000000
Si      -0.92429460       1.93070709       0.97021972       0.00000000
Si       2.19529320       0.63817704      -0.66904325       0.00000000
Si      -0.10738368      -1.96244001       1.35558753       0.00000000
Si       1.92160098       2.98854711      -0.57249419       0.00000000
Si      -1.20313053      -3.40796737      -0.21998827       0.00000000
Si       2.20480004      -2.51349813       1.44733848       0.00000000
Si       3.60365492      -0.70014420       0.67104534       0.00000000
Si       0.87478929       3.30283008       1.53004551       0.00000000
Si      -0.12540042      -2.97174723      -2.32094010       0.00000000
