10
Lattice="16.28999089631971 0.0 0.0 0.0 16.28999089631971 0.0 0.0 0.0 34.51877397758722" Properties=species:S:1:pos:R:3:initial_magmoms:R:1 pbc="T T T"
Si       0.17718633      -2.30681061       0.85761942       0.00000000
Si       2.35209681       0.72322713       0.21567342       0.00000000
Si      -1.51576821       0.61131483      -2.48290228       0.00000000
Si      -2.12327118      -1.59816303      -1.83229207       0.00000000
Si      -3.11481090      -1.15364151       0.29610221       0.00000000
Si      -2.15073612       2.34828495      -1.00756906       0.00000000
Si      -0.23237685      -3.02998887      -1.44323075       0.00000000
Si      -0.81893088      -1.52718750       3.01583793       0.00000000
Si      -3.28652379       1.20930444       0.74646890       0.00000000
Si       2.06231400       1.85093496       2.38486891       0.00000000
