10
Lattice="16.28999089631971 0.0 0.0 0.0 16.28999089631971 0.0 0.0 0.0 34.51877397758722" Properties=species:S:1:pos:R:3:initial_magmoms:R:1 pbc="T T T"
Si      -1.81822464      -0.81013428      -1.38008694       0.00000000
Si      -1.38478032       1.25310825       1.56049109       0.00000000
Si       1.30704280      -1.45254672       1.53397375       0.00000000
Si       1.15587324       1.90283490      -1.19996788       0.00000000
Si      -2.63801889       2.62920600       0.14148563       0.00000000
Si      -0.86055183       3.42976176      -1.33386627       0.00000000
Si      -3.61066221       0.84753612      -1.00295010       0.00000000
Si      -2.72898225      -2.72759760       0.07906875       0.00000000
Si       2.60824470      -2.87332794       0.12889317       0.00000000
Si      -0.04411332       2.60846883       2.92511219       0.00000000
