10
Lattice="16.28999089631971 0.0 0.0 0.0 16.28999089631971 0.0 0.0 0.0 34.51877397758722" Properties=species:S:1:pos:R:3:initial_magmoms:R:1 pbc="T T T"
Si      -1.34574948      -1.34113941      -1.39290235       0.00000000
Si       1.36569749       1.37557647      -1.39127996       0.00000000
Si      -1.53974709       1.28438505       1.35748606       0.00000000
Si       1.45744661      -1.29795462       1.56249318       0.00000000
Si       0.40505085       1.98983979       2.57168462       0.00000000
Si       2.39168218       0.62719758       2.84873245       0.00000000
Si      -2.72140740      -2.67998193      -0.00393514       0.00000000
Si       2.71826410      -2.68374492      -0.01746651       0.00000000
Si       0.00661374      -2.70156618      -2.75314991       0.00000000
Si      -2.70638802       0.01640403      -2.75211435       0.00000000
