10
Lattice="16.28999089631971 0.0 0.0 0.0 16.28999089631971 0.0 0.0 0.0 34.51877397758722" Properties=species:S:1:pos:R:3:initial_magmoms:R:1 pbc="T T T"
Si      -1.46551356       0.54046962      -1.76739673       0.00000000
Si      -0.84541842      -2.23563960       0.68015830       0.00000000
Si       0.79070031       1.26934938       2.05404079       0.00000000
Si       0.31376169       1.15971768      -3.19454172       0.00000000
Si      -0.93543696       0.27404667       3.36116394       0.00000000
Si       2.25855963       1.86517242      -1.98034317       0.00000000
Si      -0.75007305      -2.12115348       3.06105755       0.00000000
Si       0.77406822      -3.91921110       0.04131900       0.00000000
Si      -2.32699392      -1.41191946      -2.93658278       0.00000000
Si       3.18684528       0.76178556       2.34386058       0.00000000
