10
Lattice="16.28999089631971 0.0 0.0 0.0 16.28999089631971 0.0 0.0 0.0 34.51877397758722" Properties=species:S:1:pos:R:3:initial_magmoms:R:1 pbc="T T T"
Si      -1.16335687       1.50605937      -1.36804881       0.00000000
Si      -1.56173044      -1.02447810       1.48151209       0.00000000
Si       1.29034719       1.66506606       1.13011077       0.00000000
Si       1.55942541      -1.22963436      -1.36169736       0.00000000
Si      -2.52049943       0.13698261      -2.74514155       0.00000000
Si      -3.36198626       0.89226846       1.38910528       0.00000000
Si      -2.66627294      -2.63770938       0.07276562       0.00000000
Si       0.20232180      -2.58110163      -2.74037796       0.00000000
Si      -2.42417436       2.89184967       0.21191087       0.00000000
Si       1.56033765       1.08017361       3.38052898       0.00000000
