10
Lattice="16.28999089631971 0.0 0.0 0.0 16.28999089631971 0.0 0.0 0.0 34.51877397758722" Properties=species:S:1:pos:R:3:initial_magmoms:R:1 pbc="T T T"
Si      -0.78850116       1.86118137      -1.12410450       0.00000000
Si       0.87581949       0.81741591       2.02155861       0.00000000
Si      -1.70667072      -1.52555850       0.56379545       0.00000000
Si       1.66496573      -1.04907600      -1.33542856       0.00000000
Si       1.11008761       3.32786781      -1.00525630       0.00000000
Si       1.12064679      -1.08304065       3.36703213       0.00000000
Si       0.48200481      -1.39176873      -3.49841066       0.00000000
Si       2.94465275      -2.45719989       0.26465559       0.00000000
Si      -2.64468150       2.81751840      -0.06258257       0.00000000
Si       3.08173310       1.66029309       1.81251280       0.00000000
