10
Lattice="16.28999089631971 0.0 0.0 0.0 16.28999089631971 0.0 0.0 0.0 34.51877397758722" Properties=species:S:1:pos:R:3:initial_magmoms:R:1 pbc="T T T"
Si      -1.27775502       1.78515594       0.89279407       0.00000000
Si      -0.78167565       0.04390155      -2.23940671       0.00000000
Si      -0.46027395      -1.87996374       1.39121093       0.00000000
Si       2.38184235       0.07284888       0.13565886       0.00000000
Si       2.55394620      -1.43193987      -1.73011644       0.00000000
Si       2.49424335      -0.07653042       2.59381116       0.00000000
Si      -2.49408045      -1.08796023       2.39905613       0.00000000
Si       0.80146800      -1.38041460      -3.26906780       0.00000000
Si      -3.04315119      -0.61131483      -2.00188290       0.00000000
Si      -3.34907739       0.87032583       1.46107696       0.00000000
