10
Lattice="16.28999089631971 0.0 0.0 0.0 16.28999089631971 0.0 0.0 0.0 34.51877397758722" Properties=species:S:1:pos:R:3:initial_magmoms:R:1 pbc="T T T"
Si       1.67682159       0.95138487       1.30445971       0.00000000
Si       0.76275223       0.13541877      -2.23674877       0.00000000
Si      -1.15587324      -1.90283490       1.19996788       0.00000000
Si      -2.01642507       1.52692686      -0.13389840       0.00000000
Si       0.15929364       2.08538064       2.75044161       0.00000000
Si      -1.34917038      -0.22286349      -3.27334813       0.00000000
Si      -1.26791586       3.34132335       1.24515988       0.00000000
Si      -2.54065356      -0.64972665       2.76045896       0.00000000
Si       3.41142641       1.93559409      -0.07124679       0.00000000
Si       1.79439956      -1.77847704      -3.03944878       0.00000000
