10
Lattice="16.28999089631971 0.0 0.0 0.0 16.28999089631971 0.0 0.0 0.0 34.51877397758722" Properties=species:S:1:pos:R:3:initial_magmoms:R:1 pbc="T T T"
Si       0.18572229       2.26983231      -0.76293437       0.00000000
Si      -0.53840079       0.03056004       2.36419215       0.00000000
Si      -1.60013412      -1.44080163      -1.14108775       0.00000000
Si       2.36209887      -0.94361454      -0.36596825       0.00000000
Si       1.45500651       1.12244616       2.79156933       0.00000000
Si      -0.07198551      -2.54567577      -2.60796387       0.00000000
Si      -0.72879831      -2.28037194       2.94027629       0.00000000
Si       1.74444723      -3.26131990      -1.12275827       0.00000000
Si       3.26399472      -0.19761399       2.08887026       0.00000000
Si      -1.75150080      -3.33519994       1.01989227       0.00000000
