10
Lattice="16.28999089631971 0.0 0.0 0.0 16.28999089631971 0.0 0.0 0.0 34.51877397758722" Properties=species:S:1:pos:R:3:initial_magmoms:R:1 pbc="T T T"
Si       1.35807302       1.35762595      -1.35700280       0.00000000
Si      -1.35778779      -1.35755973      -1.35745155       0.00000000
Si       1.35735097      -1.35769005       1.35790029       0.00000000
Si      -1.35806472       1.35745432       1.35748606       0.00000000
Si       2.71462166      -0.00009774       2.71428175       0.00000000
Si       2.71375177      -0.00135207      -2.71566250       0.00000000
Si       2.71454509      -2.71515204       0.00017259       0.00000000
Si       2.71445387       2.71540195       0.00013808       0.00000000
Si      -0.00164529       2.71465098       2.71535183       0.00000000
Si      -0.00107514      -2.71490769       2.71524828       0.00000000
