10
Lattice="16.28999089631971 0.0 0.0 0.0 16.28999089631971 0.0 0.0 0.0 34.51877397758722" Properties=species:S:1:pos:R:3:initial_magmoms:R:1 pbc="T T T"
Si       1.43714357      -1.14183126      -1.47022444       0.00000000
Si      -0.90417645      -1.87463691       1.12161915       0.00000000
Si      -1.29995829       1.57441221      -1.44764915       0.00000000
Si       0.45341653       0.17529669       2.49850478       0.00000000
Si       2.50456211       1.27736406       1.80940611       0.00000000
Si       1.08245488      -3.23727912       1.39866698       0.00000000
Si       2.88656261      -2.39593320       0.02758052       0.00000000
Si       0.05647019      -2.48890023      -2.84134543       0.00000000
Si      -2.84897439      -2.58009165      -0.09257940       0.00000000
Si      -2.65751802       0.22374315      -2.84320945       0.00000000
