10
Lattice="16.28999089631971 0.0 0.0 0.0 16.28999089631971 0.0 0.0 0.0 34.51877397758722" Properties=species:S:1:pos:R:3:initial_magmoms:R:1 pbc="T T T"
Si      -0.78080269      -1.78948908      -1.31637418       0.00000000
Si       0.72192116       1.92725361      -1.19818183       0.00000000
Si       1.65169246      -0.81296874       1.52769823       0.00000000
Si      -1.89386581       0.31822515       1.47367632       0.00000000
Si      -1.66805383      -1.98281880       2.06422384       0.00000000
Si      -2.50017961      -0.80156574      -2.53999637       0.00000000
Si       0.49614991      -2.22640317       3.00727727       0.00000000
Si      -2.09767000      -3.13828479       0.07998004       0.00000000
Si       3.04468294       1.78069248      -1.34764821       0.00000000
Si      -0.08740255       3.87943092      -0.23745478       0.00000000
