10
Lattice="16.28999089631971 0.0 0.0 0.0 16.28999089631971 0.0 0.0 0.0 34.51877397758722" Properties=species:S:1:pos:R:3:initial_magmoms:R:1 pbc="T T T"
Si      -1.37873577       0.18479376      -1.86104622       0.00000000
Si       2.27565598      -0.51367257      -0.47180287       0.00000000
Si       0.35648873       2.31274017       0.62392719       0.00000000
Si      -1.23059451      -1.44116001       1.54264487       0.00000000
Si      -1.68324474       2.50422912      -1.83584750       0.00000000
Si       3.24165298      -0.08270433       1.61944919       0.00000000
Si       0.48399708      -2.93200452       2.36733336       0.00000000
Si       1.40062234       2.30402502       2.72197944       0.00000000
Si       2.50426985      -2.89641087      -0.85948343       0.00000000
Si      -0.33192408      -0.12948921      -3.96358592       0.00000000
