10
Lattice="16.28999089631971 0.0 0.0 0.0 16.28999089631971 0.0 0.0 0.0 34.51877397758722" Properties=species:S:1:pos:R:3:initial_magmoms:R:1 pbc="T T T"
Si      -1.35549609       1.35231435      -1.35969527       0.00000000
Si      -1.35663639      -1.35726651       1.35638146       0.00000000
Si       1.35834853       1.35713619       1.35638146       0.00000000
Si       1.35618685      -1.35392706      -1.36183543       0.00000000
Si      -2.69616309      -0.00304623      -2.72431637       0.00000000
Si       2.69477525       0.01892898      -2.73083351       0.00000000
Si      -2.71385403      -0.00029322       2.71383301       0.00000000
Si       0.00115441       2.71459818       2.71410916       0.00000000
Si      -2.71398435       2.71472850      -0.00124268       0.00000000
Si      -2.71447305      -2.71526607      -0.00100105       0.00000000
