10
Lattice="16.28999089631971 0.0 0.0 0.0 16.28999089631971 0.0 0.0 0.0 34.51877397758722" Properties=species:S:1:pos:R:3:initial_magmoms:R:1 pbc="T T T"
Si      -1.80410773      -0.84134592       1.37108647       0.00000000
Si      -1.44941904       1.25410194      -1.49780496       0.00000000
Si       1.24540308      -1.45262817      -1.50260307       0.00000000
Si       1.15285959       1.76485860       1.30191081       0.00000000
Si       1.63035207      -1.32770016       2.69622842       0.00000000
Si      -2.88656261       2.39593320      -0.02758052       0.00000000
Si       2.65412970      -2.80176597      -0.17214522       0.00000000
Si       2.71269225       2.75586075      -0.11546536       0.00000000
Si       2.59660971      -0.09231543      -2.86909854       0.00000000
Si      -0.11934054       2.62184292      -2.87116967       0.00000000
