10
Lattice="16.28999089631971 0.0 0.0 0.0 16.28999089631971 0.0 0.0 0.0 34.51877397758722" Properties=species:S:1:pos:R:3:initial_magmoms:R:1 pbc="T T T"
Si       0.77242293       0.49642146      -2.10274681       0.00000000
Si      -1.75207814      -1.51606143      -0.27611583       0.00000000
Si      -1.05158303       1.87058070       0.99962973       0.00000000
Si       1.80276543      -0.49946769       1.50588236       0.00000000
Si      -2.79888983      -1.20177846       1.82642387       0.00000000
Si       2.32684731       1.78421112       2.08179390       0.00000000
Si       2.94998868       1.39668831      -1.60374314       0.00000000
Si       1.42713432      -1.51716915      -3.07448536       0.00000000
Si       0.20230551       2.39803461       2.91728678       0.00000000
Si      -3.10339880       1.11765690       1.85162259       0.00000000
