10
Lattice="16.28999089631971 0.0 0.0 0.0 16.28999089631971 0.0 0.0 0.0 34.51877397758722" Properties=species:S:1:pos:R:3:initial_magmoms:R:1 pbc="T T T"
Si      -1.80276543       0.49946769      -1.50588236       0.00000000
Si       2.23112727      -0.79790049      -0.39624123       0.00000000
Si      -0.94726350      -1.40077710       1.70978487       0.00000000
Si       0.52408188       2.28367881       0.57591155       0.00000000
Si      -1.60045992       2.89750230       1.41140442       0.00000000
Si      -2.85434846       2.37004839      -0.50625262       0.00000000
Si       2.52416808       2.08940427       1.86594789       0.00000000
Si       3.01060377       0.56145114      -2.25604477       0.00000000
Si       3.50143776      -0.04432509       1.48596501       0.00000000
Si       1.14722325       1.89615600      -3.10962549       0.00000000
