10
Lattice="16.28999089631971 0.0 0.0 0.0 16.28999089631971 0.0 0.0 0.0 34.51877397758722" Properties=species:S:1:pos:R:3:initial_magmoms:R:1 pbc="T T T"
Si      -2.12454180       0.61382349       0.83549287       0.00000000
Si       2.00008620      -0.19427454       1.29003634       0.00000000
Si      -0.52408188      -2.28367881      -0.57591155       0.00000000
Si       0.33690978       1.32655986      -2.02822074       0.00000000
Si      -3.37843034       0.08636958      -1.08216417       0.00000000
Si      -2.32684731      -1.78421112      -2.08179390       0.00000000
Si       1.70704539      -3.08157930      -0.97215277       0.00000000
Si       0.62314137      -0.38752281      -3.68553704       0.00000000
Si       2.97735588      -2.32800390       0.91005347       0.00000000
Si       1.77503985      -0.00030951       3.63258521       0.00000000
