10
Lattice="16.28999089631971 0.0 0.0 0.0 16.28999089631971 0.0 0.0 0.0 34.51877397758722" Properties=species:S:1:pos:R:3:initial_magmoms:R:1 pbc="T T T"
Si      -1.35794092       1.35498591      -1.35852163       0.00000000
Si       1.35782037       1.35684297       1.35752058       0.00000000
Si      -1.35714759      -1.35881406       1.35731347       0.00000000
Si       1.35747828      -1.35920502      -1.36283648       0.00000000
Si      -0.02072088      -2.69702127      -2.72990151       0.00000000
Si      -2.71361967       2.71396393       0.00013808       0.00000000
Si       0.00102627       2.71339094       2.71486857       0.00000000
Si       2.71621089       2.71292795       0.00100105       0.00000000
Si      -2.71434172      -0.00135207       2.71504117       0.00000000
Si       2.71497285      -0.00047241       2.71483405       0.00000000
