10
Lattice="16.28999089631971 0.0 0.0 0.0 16.28999089631971 0.0 0.0 0.0 34.51877397758722" Properties=species:S:1:pos:R:3:initial_magmoms:R:1 pbc="T T T"
Si       1.35505107      -1.35880266      -1.36335426       0.00000000
Si      -1.35972956       1.35860229      -1.36214610       0.00000000
Si       1.35710361       1.35146727       1.37868060       0.00000000
Si      -1.37339524      -1.36516879       1.38375487       0.00000000
Si      -0.20232180       2.58110163       2.74037796       0.00000000
Si       2.71143792      -2.71535471      -0.00773221       0.00000000
Si       2.71021617       2.71788876      -0.00027615       0.00000000
Si       2.71195920      -0.00043983      -2.71959765       0.00000000
Si      -2.71522439      -2.71707933      -0.00024163       0.00000000
Si      -0.00325800       2.71476108      -2.71977024       0.00000000
