10
Lattice="16.28999089631971 0.0 0.0 0.0 16.28999089631971 0.0 0.0 0.0 34.51877397758722" Properties=species:S:1:pos:R:3:initial_magmoms:R:1 pbc="T T T"
Si       1.55983266       0.99100215      -1.41737617       0.00000000
Si       0.94925088      -0.82806957       2.08693720       0.00000000
Si      -1.15285959      -1.76485860      -1.30191081       0.00000000
Si      -1.53486009       1.90843866       0.47991478       0.00000000
Si       0.47749248      -3.09255876       1.39431762       0.00000000
Si      -0.89875188       0.07982100       3.36309699       0.00000000
Si       0.09655083       2.22267276      -2.80689567       0.00000000
Si      -0.64073457       2.43199926       2.75394385       0.00000000
Si       2.45798181      -2.86638840      -0.20410962       0.00000000
Si      -2.78786571      -1.13520123       2.28887214       0.00000000
