10
Lattice="16.28999089631971 0.0 0.0 0.0 16.28999089631971 0.0 0.0 0.0 34.51877397758722" Properties=species:S:1:pos:R:3:initial_magmoms:R:1 pbc="T T T"
Si       2.13172569       0.64580076       0.79738412       0.00000000
Si      -0.25801731      -2.35217826       0.60915314       0.00000000
Si      -1.20317940       1.90992661       0.98043729       0.00000000
Si      -0.89412552      -0.52356060      -2.27402906       0.00000000
Si       2.29276863       1.98380664      -1.16221325       0.00000000
Si      -3.13645868       0.83126241       1.70540098       0.00000000
Si       1.58998545      -3.26006883      -0.66700664       0.00000000
Si      -2.94527110      -1.62562797      -1.58493039       0.00000000
Si       0.64073457      -2.43199926      -2.75394385       0.00000000
Si       0.47633589       2.69945078      -2.64741885       0.00000000
