10
Lattice="10.86 0.0 0.0 0.0 10.86 0.0 0.0 0.0 10.86" Properties=species:S:1:pos:R:3:initial_magmoms:R:1 pbc="T T T"
Si       1.34102538      -1.27002270      -1.43512728       0.00000000
Si       1.34102538       1.44497730       1.27987272       0.00000000
Si      -1.37397462       1.44497730      -1.43512728       0.00000000
Si       0.01155504      -2.49361890       2.56494738       0.00000000
Si       2.69852538      -2.62752270      -0.07762728       0.00000000
Si       2.69852538       0.08747730       2.63737272       0.00000000
Si      -2.76031878      -2.62644756      -0.00427884       0.00000000
Si      -2.70532374       2.70813648      -0.10692756       0.00000000
Si      -0.01647462      -2.62752270      -2.79262728       0.00000000
Si      -0.01291254       2.87884482       2.56938912       0.00000000
