10
Lattice="10.86 0.0 0.0 0.0 10.86 0.0 0.0 0.0 10.86" Properties=species:S:1:pos:R:3:initial_magmoms:R:1 pbc="T T T"
Si      -1.18783422       1.37767788      -1.47659076       0.00000000
Si      -2.43209700      -2.43206442      -0.22418298       0.00000000
Si       0.12863670      -2.56394826       2.58138942       0.00000000
Si      -2.62102842       0.12965754       2.54033862       0.00000000
Si      -2.48938350       2.84529828      -0.14470950       0.00000000
Si       2.90702652      -2.42311578      -0.25972776       0.00000000
Si       0.13515270      -2.55594444      -2.82895398       0.00000000
Si      -2.64533310       0.13340424      -2.92024314       0.00000000
Si       0.13490292       2.95544040       2.62089810       0.00000000
Si       0.19014774       2.77863960      -2.93160270       0.00000000
