10
Lattice="10.86 0.0 0.0 0.0 10.86 0.0 0.0 0.0 10.86" Properties=species:S:1:pos:R:3:initial_magmoms:R:1 pbc="T T T"
Si       1.38659394       1.27504002       1.26429948       0.00000000
Si      -1.32840606      -1.43995998       1.26429948       0.00000000
Si      -1.32840606       1.27504002      -1.45070052       0.00000000
Si       0.02909394       2.63254002       2.62179948       0.00000000
Si      -2.68590606      -0.08245998       2.62179948       0.00000000
Si      -2.68590606       2.63254002      -0.09320052       0.00000000
Si       2.74409394      -0.08245998       2.62179948       0.00000000
Si       2.74409394       2.63254002      -0.09320052       0.00000000
Si      -2.62428642      -0.11014212      -2.76560760       0.00000000
Si       0.02909394      -2.79745998       2.62179948       0.00000000
