10
Lattice="10.86 0.0 0.0 0.0 10.86 0.0 0.0 0.0 10.86" Properties=species:S:1:pos:R:3:initial_magmoms:R:1 pbc="T T T"
Si      -1.33414014      -1.27664730       1.29961620       0.00000000
Si       1.38085986       1.43835270       1.29961620       0.00000000
Si      -1.33414014       1.43835270      -1.41538380       0.00000000
Si       1.33574742      -1.30202712      -1.66864986       0.00000000
Si       2.67437274       0.19612074      -2.60873490       0.00000000
Si      -2.69164014      -2.63414730      -0.05788380       0.00000000
Si      -2.69164014       0.08085270       2.65711620       0.00000000
Si       2.61209064       0.17493288       2.75888526       0.00000000
Si       0.02335986       2.79585270       2.65711620       0.00000000
Si      -0.05646114      -2.74520166       2.72040828       0.00000000
