10
Lattice="16.28999089631971 0.0 0.0 0.0 16.28999089631971 0.0 0.0 0.0 34.54679606040008" Properties=species:S:1:pos:R:3:initial_magmoms:R:1 pbc="T T T"
Si      -0.55226213       1.15860996       1.96802843       0.00000000
Si      -1.37692709      -1.88002890       0.32539645       0.00000000
Si       1.94865101      -1.39422852      -0.07859400       0.00000000
Si      -0.78310772       1.38872250      -1.80973492       0.00000000
Si      -0.97428716      -2.69441487      -1.88667068       0.00000000
Si       1.42139095      -2.44134972      -2.13264401       0.00000000
Si      -0.50340842       3.50950850      -0.79257304       0.00000000
Si      -0.32079752      -2.80530090       2.39720352       0.00000000
Si      -2.88070586       0.82761345       2.19137359       0.00000000
Si      -3.49746155      -1.13572251       1.00783424       0.00000000
