10
Lattice="16.28999089631971 0.0 0.0 0.0 16.28999089631971 0.0 0.0 0.0 34.54679606040008" Properties=species:S:1:pos:R:3:initial_magmoms:R:1 pbc="T T T"
Si       0.86763798       2.01290873       0.81568486       0.00000000
Si       1.28979333      -1.49134950       1.28058135       0.00000000
Si      -2.26329839      -0.07685622       0.96071239       0.00000000
Si       0.69553413      -0.75714291      -2.25248691       0.00000000
Si       0.70030710      -3.52730628       0.17687969       0.00000000
Si      -1.15893576      -2.05205130      -2.86313642       0.00000000
Si      -3.65984891       0.50078718      -0.81651398       0.00000000
Si       1.69486047       1.56300336       3.02139538       0.00000000
Si       2.35124973       2.98430261      -0.68167776       0.00000000
Si       0.52377237       1.00918179      -3.82657800       0.00000000
