10
Lattice="16.28999089631971 0.0 0.0 0.0 16.28999089631971 0.0 0.0 0.0 34.54679606040008" Properties=species:S:1:pos:R:3:initial_magmoms:R:1 pbc="T T T"
Si      -1.72315620       0.72599643      -1.45234812       0.00000000
Si      -1.29652110      -0.96591555       1.75383818       0.00000000
Si       0.67535082      -1.94733592      -1.20796395       0.00000000
Si       1.56028878       1.17872811       1.48257658       0.00000000
Si       1.58234544       0.10826334      -2.55829532       0.00000000
Si      -1.62368946      -2.91079820      -1.14522693       0.00000000
Si       2.42865981       2.11773258      -1.46074299       0.00000000
Si      -2.83234230       0.67939074       2.21914923       0.00000000
Si      -3.41293419       1.33411842       0.08370693       0.00000000
Si       2.09202696      -0.50446872       3.03922154       0.00000000
