10
Lattice="16.28999089631971 0.0 0.0 0.0 16.28999089631971 0.0 0.0 0.0 34.54679606040008" Properties=species:S:1:pos:R:3:initial_magmoms:R:1 pbc="T T T"
Si      -1.82516418      -0.77841765       1.20105458       0.00000000
Si      -0.86649768       1.52479287      -1.55246479       0.00000000
Si       0.69338385      -1.85026707      -1.26206426       0.00000000
Si       1.17607284       0.90113022       1.83802876       0.00000000
Si      -2.09723976      -0.08488719      -2.74001157       0.00000000
Si      -2.86518294       1.38083814       1.56935818       0.00000000
Si      -0.61196643      -2.04094152       2.84835038       0.00000000
Si       2.82712950      -1.26874665      -1.91993926       0.00000000
Si      -0.56141856      -1.73019348      -3.20532262       0.00000000
Si       1.06235235       2.31684525      -2.69226787       0.00000000
