10
Lattice="16.28999089631971 0.0 0.0 0.0 16.28999089631971 0.0 0.0 0.0 34.54679606040008" Properties=species:S:1:pos:R:3:initial_magmoms:R:1 pbc="T T T"
Si      -0.63102573      -1.80884160       1.35243873       0.00000000
Si       1.19964447      -1.48471947      -1.47525266       0.00000000
Si      -1.75848921       1.13331159      -1.25546582       0.00000000
Si       1.62210933       1.23610149       1.39576043       0.00000000
Si      -1.57478688       3.09568644       0.79084570       0.00000000
Si       2.67447591      -2.42657469       0.24649153       0.00000000
Si      -0.51121278       2.37667842      -2.87249860       0.00000000
Si       3.52079028      -0.41710545       1.34404385       0.00000000
Si       2.48671737      -0.22442733      -2.96622411       0.00000000
Si      -2.32080372      -1.20071961       2.88849378       0.00000000
