10
Lattice="16.28999089631971 0.0 0.0 0.0 16.28999089631971 0.0 0.0 0.0 34.54679606040008" Properties=species:S:1:pos:R:3:initial_magmoms:R:1 pbc="T T T"
Si       0.51662106      -1.73139894       1.55864867       0.00000000
Si       1.04221791       2.03603823       0.77153403       0.00000000
Si      -2.37680874       0.25275564      -0.38961898       0.00000000
Si       0.71935011      -1.04158260      -2.11727067       0.00000000
Si       3.05284374       1.00178613       1.46623594       0.00000000
Si       1.94830029      -0.50599998       2.96080026       0.00000000
Si      -2.47754610       0.81800235      -2.72218541       0.00000000
Si      -1.41222897      -2.52345132       2.69845175       0.00000000
Si      -3.20538330       2.33298864       0.29216242       0.00000000
Si      -0.33350517       3.11521815       2.48322509       0.00000000
