10
Lattice="16.28999089631971 0.0 0.0 0.0 16.28999089631971 0.0 0.0 0.0 34.54679606040008" Properties=species:S:1:pos:R:3:initial_magmoms:R:1 pbc="T T T"
Si       1.16779752       1.58677632      -1.39268577       0.00000000
Si      -0.71935011       1.04158260       2.11727067       0.00000000
Si      -1.62210933      -1.23610149      -1.39576043       0.00000000
Si       1.89868095      -1.65320694      -0.05171658       0.00000000
Si       2.13622173       0.09743049      -3.05127837       0.00000000
Si       3.41653428       1.48330224      -0.32422186       0.00000000
Si      -0.20272905      -0.68981634       3.67591934       0.00000000
Si      -3.19689621       1.85958495      -0.60491474       0.00000000
Si      -3.09615885       1.29433824       1.72765169       0.00000000
Si      -2.25313506      -3.04494309      -0.04332171       0.00000000
