10
Lattice="16.28999089631971 0.0 0.0 0.0 16.28999089631971 0.0 0.0 0.0 34.54679606040008" Properties=species:S:1:pos:R:3:initial_magmoms:R:1 pbc="T T T"
Si       1.83739797       1.19601180       0.89970271       0.00000000
Si      -0.43337916       1.31269707      -1.94878585       0.00000000
Si       1.22311836      -2.04163289      -0.59790173       0.00000000
Si      -1.01273627       0.75450393       2.12511280       0.00000000
Si      -2.91164921      -0.19912896      -0.34843918       0.00000000
Si      -3.05425187      -0.26412606       1.99877510       0.00000000
Si       0.79737921       3.35526759       1.26800631       0.00000000
Si      -1.47641646       3.04132671       1.93776542       0.00000000
Si       1.56532239       1.88954226      -3.04136344       0.00000000
Si       0.49454811      -2.70978353      -2.79763566       0.00000000
