10
Lattice="16.28999089631971 0.0 0.0 0.0 16.28999089631971 0.0 0.0 0.0 34.54679606040008" Properties=species:S:1:pos:R:3:initial_magmoms:R:1 pbc="T T T"
Si       1.22246676      -1.40344866       1.41217017       0.00000000
Si      -1.34596125      -1.36879983      -1.35803531       0.00000000
Si       1.37627694       1.34425080      -1.35927900       0.00000000
Si      -1.37705886       1.33079526       1.42871810       0.00000000
Si      -2.69079523      -2.72741841       0.01343871       0.00000000
Si      -2.70020922      -0.01073511      -2.71852345       0.00000000
Si       0.01267362       2.70291825      -2.71755614       0.00000000
Si       2.73970107       2.68828983       0.00521657       0.00000000
Si      -2.71369734       2.71437012       0.03212854       0.00000000
Si       2.71539639      -2.72287350       0.01019131       0.00000000
