10
Lattice="16.28999089631971 0.0 0.0 0.0 16.28999089631971 0.0 0.0 0.0 34.54679606040008" Properties=species:S:1:pos:R:3:initial_magmoms:R:1 pbc="T T T"
Si      -2.14368255      -0.50453388      -0.69394188       0.00000000
Si       0.10073736      -0.56524671       2.33256643       0.00000000
Si       1.29078702       1.74581559      -1.04003188       0.00000000
Si      -0.18370233      -1.96237485      -2.04631151       0.00000000
Si      -0.72783720       1.51498629       3.01434783       0.00000000
Si       1.57478688      -3.09568644      -0.79084570       0.00000000
Si      -1.71292608      -2.19794454       2.30931642       0.00000000
Si       2.73476520       0.50813397      -2.49061811       0.00000000
Si       3.19689621      -1.85958495       0.60491474       0.00000000
Si       2.47754610      -0.81800235       2.72218541       0.00000000
