10
Lattice="16.28999089631971 0.0 0.0 0.0 16.28999089631971 0.0 0.0 0.0 34.54679606040008" Properties=species:S:1:pos:R:3:initial_magmoms:R:1 pbc="T T T"
Si       1.48361175       0.97139388      -1.49736262       0.00000000
Si      -0.86763798      -2.01290873      -0.81568486       0.00000000
Si      -1.33045317       1.94773503       0.11510999       0.00000000
Si       0.82722249      -0.44990536       2.20571052       0.00000000
Si      -2.35957392       1.38297702       2.21583274       0.00000000
Si       0.42215535      -3.50425823       0.46489649       0.00000000
Si      -2.57972024       1.79240988      -1.91924833       0.00000000
Si      -0.41748012       1.15503105       3.55586916       0.00000000
Si      -3.13093637      -2.08976495       0.14502753       0.00000000
Si       0.38519334       3.73385208       0.32145812       0.00000000
