10
Lattice="16.28999089631971 0.0 0.0 0.0 16.28999089631971 0.0 0.0 0.0 34.54679606040008" Properties=species:S:1:pos:R:3:initial_magmoms:R:1 pbc="T T T"
Si       1.26408771      -1.94043222       0.03620506       0.00000000
Si      -1.39962051       0.95029344       1.64297745       0.00000000
Si       1.53396414       1.52032941      -0.96192153       0.00000000
Si      -2.16344232      -0.30682215      -0.97325288       0.00000000
Si       1.62947241       0.12481398      -2.91740946       0.00000000
Si      -2.17391679       1.47937635      -2.44563815       0.00000000
Si       1.75593168      -2.20758822      -2.23580080       0.00000000
Si       3.36709413      -1.13642298       0.79316033       0.00000000
Si      -3.56764032      -0.11292228       0.94851736       0.00000000
Si       3.77880759       1.08794394      -0.03002118       0.00000000
