10
Lattice="16.28999089631971 0.0 0.0 0.0 16.28999089631971 0.0 0.0 0.0 34.54679606040008" Properties=species:S:1:pos:R:3:initial_magmoms:R:1 pbc="T T T"
Si       1.35353610      -1.35858600       1.35907172       0.00000000
Si      -1.35928647       1.35672046       1.35817350       0.00000000
Si       1.34996859       1.34083464      -1.39333870       0.00000000
Si      -1.35026181      -1.35896067      -1.38074293       0.00000000
Si      -0.13753647       2.61462223      -2.77054404       0.00000000
Si       2.71298547      -2.71318095      -0.00024183       0.00000000
Si       2.71122615       2.71497841      -0.00528566       0.00000000
Si       2.71204065       0.00024435       2.71541423       0.00000000
Si      -2.71502172       2.71377783      -0.00252192       0.00000000
Si      -0.00216657      -2.71480995       2.71575970       0.00000000
