10
Lattice="16.28999089631971 0.0 0.0 0.0 16.28999089631971 0.0 0.0 0.0 34.54679606040008" Properties=species:S:1:pos:R:3:initial_magmoms:R:1 pbc="T T T"
Si       1.40322060      -1.25307567       1.35373423       0.00000000
Si       1.03135248       1.64724480      -1.31756061       0.00000000
Si      -1.33056720       1.44749682       1.34421659       0.00000000
Si      -0.68263245      -1.87264953      -1.40532787       0.00000000
Si       1.21438692      -0.08462655      -3.09743089       0.00000000
Si      -0.77999778       3.28280967      -1.43876919       0.00000000
Si      -2.63996066      -2.57157524      -0.16165837       0.00000000
Si      -2.67031219       2.62255968      -0.18988312       0.00000000
Si       0.04077387      -2.60786284       2.70399651       0.00000000
Si       2.61825912      -2.70701844      -0.06402561       0.00000000
