10
Lattice="16.28999089631971 0.0 0.0 0.0 16.28999089631971 0.0 0.0 0.0 34.54679606040008" Properties=species:S:1:pos:R:3:initial_magmoms:R:1 pbc="T T T"
Si       0.58072221       1.93362300       1.22247361       0.00000000
Si      -1.52173035      -1.07810478       1.48464939       0.00000000
Si       1.82684205      -1.48294386      -0.40305769       0.00000000
Si      -0.84967011       1.16183538      -2.22871870       0.00000000
Si      -0.00656487      -2.07151785       2.95192173       0.00000000
Si      -1.47079152       3.15919433       1.01584911       0.00000000
Si       1.36915821      -3.15069777       1.24023067       0.00000000
Si       1.50969204      -2.28692052      -2.62604162       0.00000000
Si      -1.10737791       3.37993458      -1.38477455       0.00000000
Si       2.38612662       3.05973441       0.22410519       0.00000000
