10
Lattice="16.28999089631971 0.0 0.0 0.0 16.28999089631971 0.0 0.0 0.0 34.54679606040008" Properties=species:S:1:pos:R:3:initial_magmoms:R:1 pbc="T T T"
Si       0.28527048       0.01440036      -2.33674659       0.00000000
Si      -1.95732821      -0.69892571       1.24366950       0.00000000
Si       0.68263245       1.87264953       1.40532787       0.00000000
Si       1.58125401      -2.01976273       0.09769222       0.00000000
Si       1.89701937       1.78802298      -1.69210302       0.00000000
Si      -0.65634039      -2.10199833       2.73560827       0.00000000
Si       2.08585305       0.61957386       2.75906210       0.00000000
Si       3.30089157      -0.83436891       1.34130226       0.00000000
Si       1.71398493       3.51989433       0.08776726       0.00000000
Si       0.52652538      -3.66665813       1.38693860       0.00000000
