10
Lattice="16.28999089631971 0.0 0.0 0.0 16.28999089631971 0.0 0.0 0.0 34.54679606040008" Properties=species:S:1:pos:R:3:initial_magmoms:R:1 pbc="T T T"
Si      -0.61152660      -0.52460316       2.16522165       0.00000000
Si      -1.38640932      -1.28713806      -1.38277083       0.00000000
Si      -0.46325502       2.17660694      -0.85520641       0.00000000
Si       2.24911143      -0.73184454       0.33800604       0.00000000
Si       1.73131749       2.77284375      -1.38885107       0.00000000
Si       0.92901870       0.92932821       3.32499279       0.00000000
Si       2.97429336       0.91222371       1.98011982       0.00000000
Si       0.05061303      -1.77474663      -3.24605332       0.00000000
Si       0.12732264      -2.77187382       2.49486737       0.00000000
Si      -2.99107206      -0.77687010       2.11485240       0.00000000
