10
Lattice="16.28999089631971 0.0 0.0 0.0 16.28999089631971 0.0 0.0 0.0 34.54679606040008" Properties=species:S:1:pos:R:3:initial_magmoms:R:1 pbc="T T T"
Si      -1.79838342      -1.04496603       1.10717154       0.00000000
Si      -1.04888052       0.59869008      -2.03073785       0.00000000
Si       1.05723729       1.82016315       1.10090129       0.00000000
Si      -0.31087836      -2.31875362       2.48437688       0.00000000
Si       2.41013808       0.41940234       2.50998643       0.00000000
Si       3.24122130      -0.60302322      -1.81958771       0.00000000
Si      -3.01342194       0.40897674       2.52493139       0.00000000
Si      -0.31682421       3.12028434       2.51446716       0.00000000
Si       2.91377601      -2.77061039      -0.20248583       0.00000000
Si      -0.03200985       2.44369548      -3.21555543       0.00000000
