10
Lattice="16.28999089631971 0.0 0.0 0.0 16.28999089631971 0.0 0.0 0.0 34.54679606040008" Properties=species:S:1:pos:R:3:initial_magmoms:R:1 pbc="T T T"
Si       1.41527520      -1.18939643      -1.48706767       0.00000000
Si       1.63113399       0.87876405       1.50150824       0.00000000
Si      -1.27519749       1.49547087      -1.48330206       0.00000000
Si      -0.78643233      -2.09193411       1.09807053       0.00000000
Si      -0.04059468      -0.17677908       3.24142405       0.00000000
Si       2.83887459      -2.39814734      -0.04045432       0.00000000
Si       2.65137669       2.68913691      -0.12768503       0.00000000
Si       3.51547974      -0.53910126       1.31053344       0.00000000
Si       0.05919786      -2.55157096      -2.84555209       0.00000000
Si       1.10778516      -3.56427548       1.01394903       0.00000000
