10
Lattice="16.28999089631971 0.0 0.0 0.0 16.28999089631971 0.0 0.0 0.0 34.54679606040008" Properties=species:S:1:pos:R:3:initial_magmoms:R:1 pbc="T T T"
Si      -1.73154555      -0.87533046       1.35350968       0.00000000
Si       0.70086096       1.72627117       1.48941685       0.00000000
Si       2.01510558      -1.12505616      -0.61752432       0.00000000
Si      -1.27003356       1.15196885      -1.67804246       0.00000000
Si      -1.45191141       2.70039688       1.72848081       0.00000000
Si      -2.56189572       2.55740326      -0.30307921       0.00000000
Si       2.36068164      -0.22516398      -2.77628572       0.00000000
Si      -0.83960289      -2.75174298       2.51013706       0.00000000
Si      -2.34005850       0.85927013       2.92376608       0.00000000
Si      -2.78410761      -0.16912638      -2.87864794       0.00000000
