10
Lattice="16.28999089631971 0.0 0.0 0.0 16.28999089631971 0.0 0.0 0.0 34.54679606040008" Properties=species:S:1:pos:R:3:initial_magmoms:R:1 pbc="T T T"
Si      -1.35661491       1.35710361      -1.35751711       0.00000000
Si       1.35814617       1.35641943       1.35796622       0.00000000
Si       1.35811359      -1.35751086      -1.35775894       0.00000000
Si      -1.35876519      -1.35845568       1.35758620       0.00000000
Si      -2.71423980       2.71428867       0.00017273       0.00000000
Si      -0.00073305      -2.71511946      -2.71344507       0.00000000
Si      -2.71376739      -0.00017919       2.71486149       0.00000000
Si      -2.71482624      -0.00272043      -2.71455056       0.00000000
Si       0.00030951       2.71492398      -2.71458511       0.00000000
Si      -2.71425609      -2.71536381      -0.00017273       0.00000000
