10
Lattice="16.28999089631971 0.0 0.0 0.0 16.28999089631971 0.0 0.0 0.0 34.54679606040008" Properties=species:S:1:pos:R:3:initial_magmoms:R:1 pbc="T T T"
Si       1.35692442      -1.35524655      -1.35886444       0.00000000
Si      -1.36018242       1.35876519      -1.35831169       0.00000000
Si      -1.33579629      -1.38039831       1.36242276       0.00000000
Si       1.35573525       1.35799956       1.37126674       0.00000000
Si      -2.58305643       0.08107533       2.67703272       0.00000000
Si       2.59077789      -0.18673227       2.71803979       0.00000000
Si       2.71218726      -2.71205694      -0.00608024       0.00000000
Si       2.71251306       0.00169416      -2.71610517       0.00000000
Si      -0.00193851      -2.71311579      -2.71613972       0.00000000
Si       2.71381626       2.71761183       0.00186553       0.00000000
