10
Lattice="16.28999089631971 0.0 0.0 0.0 16.28999089631971 0.0 0.0 0.0 34.54679606040008" Properties=species:S:1:pos:R:3:initial_magmoms:R:1 pbc="T T T"
Si       1.23432588      -1.42324101      -1.41552121       0.00000000
Si      -1.33669224      -1.59904269       1.16726780       0.00000000
Si      -1.49064903       1.26555381      -1.41241200       0.00000000
Si       0.81028089       1.62007308       1.64812492       0.00000000
Si      -0.41115960      -0.02536353       3.28533305       0.00000000
Si       2.40249807       2.60434746      -0.00269465       0.00000000
Si       0.29323629      -2.37998529       2.87011487       0.00000000
Si       2.56945428      -0.07734492      -2.77911856       0.00000000
Si       2.73113253      -2.63388123      -0.04480722       0.00000000
Si      -2.78067042      -0.36136107       2.61785403       0.00000000
