10
Lattice="16.28999089631971 0.0 0.0 0.0 16.28999089631971 0.0 0.0 0.0 34.54679606040008" Properties=species:S:1:pos:R:3:initial_magmoms:R:1 pbc="T T T"
Si       1.33213104       1.57367916       1.11182016       0.00000000
Si      -2.01062583       1.03425210      -0.69470191       0.00000000
Si      -1.10454345      -1.50778611       1.49456433       0.00000000
Si       1.70901648      -0.76010769      -1.59554467       0.00000000
Si      -3.05284374      -1.00178613      -1.46623594       0.00000000
Si       2.34631386       2.71306692      -0.71798646       0.00000000
Si       3.07222884       0.16156422       2.08638582       0.00000000
Si      -2.53622268      -2.73318507       0.09241273       0.00000000
Si       0.58613049      -2.34090558       2.87844066       0.00000000
Si       2.60972316      -2.74115088      -0.63465955       0.00000000
