10
Lattice="16.28999089631971 0.0 0.0 0.0 16.28999089631971 0.0 0.0 0.0 34.54679606040008" Properties=species:S:1:pos:R:3:initial_magmoms:R:1 pbc="T T T"
Si      -1.34871426       1.33146204      -1.34672123       0.00000000
Si       1.34214939       1.35623261       1.34941934       0.00000000
Si       1.32027192      -1.38360108      -1.36315170       0.00000000
Si      -1.37419182      -1.35320394       1.34544645       0.00000000
Si      -2.22526287      -0.46790760      -2.73074753       0.00000000
Si      -0.40975866      -2.19951831      -2.77686753       0.00000000
Si       2.47937058       0.08336101      -2.83224608       0.00000000
Si       2.69405649      -2.70704955       0.00272574       0.00000000
Si       2.69910639      -0.00012396       2.70904380       0.00000000
Si      -0.01550808      -2.71486875       2.70700554       0.00000000
