10
Lattice="16.28999089631971 0.0 0.0 0.0 16.28999089631971 0.0 0.0 0.0 34.54679606040008" Properties=species:S:1:pos:R:3:initial_magmoms:R:1 pbc="T T T"
Si      -1.35829278       1.35714209      -1.36104089       0.00000000
Si       1.35928062      -1.35798455      -1.36014267       0.00000000
Si      -1.34597754      -1.34601140       1.39082024       0.00000000
Si       1.35400266       1.34804087       1.39068205       0.00000000
Si       2.71432844      -2.71290530       0.00262556       0.00000000
Si      -2.71368594       2.71554890      -0.00704755       0.00000000
Si      -2.71366965      -0.00011237      -2.71707248       0.00000000
Si      -2.71735119      -2.71358948       0.00608024       0.00000000
Si       0.00119168       2.71427828      -2.71676156       0.00000000
Si       0.00152869      -2.71503929      -2.71665792       0.00000000
