10
Lattice="16.28999089631971 0.0 0.0 0.0 16.28999089631971 0.0 0.0 0.0 34.54679606040008" Properties=species:S:1:pos:R:3:initial_magmoms:R:1 pbc="T T T"
Si       1.35086454       1.35138582       1.34476933       0.00000000
Si      -1.35526284       1.35681039      -1.35278420       0.00000000
Si       1.35539316      -1.35840681      -1.35399333       0.00000000
Si      -1.35751086      -1.35320867       1.36473739       0.00000000
Si      -0.12140937       2.52532467       2.72412003       0.00000000
Si       2.58139485      -0.01127268       2.75182658       0.00000000
Si       0.06608853      -2.56195958       2.81135074       0.00000000
Si       0.00032580       2.71375110      -2.71002493       0.00000000
Si      -2.71412577      -0.00105885      -2.71005948       0.00000000
Si      -2.71218726       2.71205694       0.00608024       0.00000000
