10
Lattice="16.28999089631971 0.0 0.0 0.0 16.28999089631971 0.0 0.0 0.0 34.54679606040008" Properties=species:S:1:pos:R:3:initial_magmoms:R:1 pbc="T T T"
Si       0.18775854      -2.27783789       0.46593290       0.00000000
Si       1.10863224       1.15002513       1.72699530       0.00000000
Si      -2.36216403       0.40580019      -0.12934328       0.00000000
Si       1.37824803      -0.23065011      -2.10811577       0.00000000
Si       3.30548439       0.18218736       1.46599411       0.00000000
Si       0.99137682       3.37950711       0.94907011       0.00000000
Si      -2.95039593       0.18588519      -2.46097694       0.00000000
Si      -3.44295666      -0.90070505       1.56417616       0.00000000
Si       2.89322847       1.64889009      -2.12241815       0.00000000
Si       2.33505747      -3.20889284       0.03955610       0.00000000
