10
Lattice="16.28999089631971 0.0 0.0 0.0 16.28999089631971 0.0 0.0 0.0 34.54679606040008" Properties=species:S:1:pos:R:3:initial_magmoms:R:1 pbc="T T T"
Si      -0.77256954       0.05421312      -2.28375178       0.00000000
Si       1.51498044       1.87954020      -0.01430238       0.00000000
Si       1.45773901      -1.95672941       0.08774891       0.00000000
Si      -1.37824803       0.23065011       2.10811577       0.00000000
Si      -1.19048949      -2.04718778       2.57404867       0.00000000
Si       3.08096747       0.97982721       1.46910332       0.00000000
Si      -2.65691529       1.47207843      -2.09277698       0.00000000
Si       0.95680944      -2.97824273       2.14767187       0.00000000
Si       0.20794185       3.72356820       0.73297978       0.00000000
Si       1.82881707       2.50015662      -2.35395091       0.00000000
