10
Lattice="16.28999089631971 0.0 0.0 0.0 16.28999089631971 0.0 0.0 0.0 34.54679606040008" Properties=species:S:1:pos:R:3:initial_magmoms:R:1 pbc="T T T"
Si       1.75275513      -1.36492281       0.80228069       0.00000000
Si      -1.87313823      -1.29124314       0.72192480       0.00000000
Si       0.70755615       0.18518472      -2.28271537       0.00000000
Si      -0.24633738       2.13941457       1.05585432       0.00000000
Si       2.02624794       2.90642922       1.30155127       0.00000000
Si       1.47305583      -3.48570881      -0.21488119       0.00000000
Si       1.61015247      -1.42991991       3.14949497       0.00000000
Si      -1.07173539       1.74452868       3.30454108       0.00000000
Si       2.90440830      -0.78265305      -2.54371656       0.00000000
Si       0.59030073       2.41466670      -3.06064056       0.00000000
