10
Lattice="16.28999089631971 0.0 0.0 0.0 16.28999089631971 0.0 0.0 0.0 34.54679606040008" Properties=species:S:1:pos:R:3:initial_magmoms:R:1 pbc="T T T"
Si       1.88110404      -1.06782579      -0.88491668       0.00000000
Si      -1.31678586      -1.66659080      -1.02870052       0.00000000
Si       0.04061097       0.19067445       2.35996205       0.00000000
Si      -0.80078382       2.10662280      -0.72987057       0.00000000
Si      -0.35359074      -3.68472374      -0.24818432       0.00000000
Si      -3.09079944       2.10725811       0.05714043       0.00000000
Si      -1.60218666      -0.92914902      -3.31248684       0.00000000
Si      -3.37890438      -1.73261580       0.09659290       0.00000000
Si       0.32166234      -2.01286082       3.21406297       0.00000000
Si       0.26673246       3.78543762       0.49308670       0.00000000
