10
Lattice="16.28999089631971 0.0 0.0 0.0 16.28999089631971 0.0 0.0 0.0 34.54679606040008" Properties=species:S:1:pos:R:3:initial_magmoms:R:1 pbc="T T T"
Si       1.35250228      -1.35578412       1.36131726       0.00000000
Si       1.37260145       1.33758819      -1.36776370       0.00000000
Si      -1.36115982       1.36166481       1.36021176       0.00000000
Si      -1.35153243      -1.36446669      -1.39145245       0.00000000
Si      -0.09855450       2.60758917      -2.64917072       0.00000000
Si       2.71054101      -2.71044423       0.00494019       0.00000000
Si       2.71086681       0.00201996       2.71797070       0.00000000
Si      -0.00392589      -2.71270854       2.71817798       0.00000000
Si       2.71509081       2.71585251       0.00269465       0.00000000
Si      -2.71790505      -2.71409319       0.00127823       0.00000000
