10
Lattice="16.28999089631971 0.0 0.0 0.0 16.28999089631971 0.0 0.0 0.0 34.54679606040008" Properties=species:S:1:pos:R:3:initial_magmoms:R:1 pbc="T T T"
Si       1.23053031      -1.36265850       1.40705724       0.00000000
Si      -1.47227391       1.17393885       1.37935070       0.00000000
Si      -1.35086454      -1.35138582      -1.34476933       0.00000000
Si       1.36374993       1.36456443      -1.33830908       0.00000000
Si       0.31358250       2.12035527       2.63232914       0.00000000
Si       1.99321575       0.39164418       2.74737004       0.00000000
Si      -0.60817086      -2.05429932       2.81756917       0.00000000
Si      -2.70612738       0.00542457      -2.69755353       0.00000000
Si       0.00452862      -2.70979263      -2.69876267       0.00000000
Si      -2.70837540      -2.70459449       0.01996806       0.00000000
