10
Lattice="16.28999089631971 0.0 0.0 0.0 16.28999089631971 0.0 0.0 0.0 34.54679606040008" Properties=species:S:1:pos:R:3:initial_magmoms:R:1 pbc="T T T"
Si      -2.25313506       0.93035448       0.15193689       0.00000000
Si      -0.86780088      -1.97436429      -1.18236476       0.00000000
Si       1.99705626       0.27712548       1.64339201       0.00000000
Si       1.93829823       0.78242499      -1.55857958       0.00000000
Si       0.15244182      -0.16399143      -2.81155802       0.00000000
Si       3.30409485      -1.56690252       0.89610984       0.00000000
Si       1.01654487      -3.39222960      -1.37333955       0.00000000
Si       1.78911441      -3.44644272       0.91041223       0.00000000
Si      -2.53952955      -3.02990742       0.55755105       0.00000000
Si       3.61793148      -0.94628610      -1.44353868       0.00000000
