10
Lattice="16.28999089631971 0.0 0.0 0.0 16.28999089631971 0.0 0.0 0.0 34.54679606040008" Properties=species:S:1:pos:R:3:initial_magmoms:R:1 pbc="T T T"
Si       1.50345527      -0.51789168      -1.73739389       0.00000000
Si       1.16173994      -1.03089636       1.78693402       0.00000000
Si       0.06597450       2.36667636       0.40012122       0.00000000
Si      -2.27258532      -0.76701465      -0.24569695       0.00000000
Si      -1.57791456       2.45941533       2.06247942       0.00000000
Si       3.43553561      -0.71695548       1.11717492       0.00000000
Si       3.55259555       0.43093566      -0.96648171       0.00000000
Si       0.70180808       0.51197841      -3.67108279       0.00000000
Si      -2.02624794      -2.90642922      -1.30155127       0.00000000
Si       0.14305878      -0.18057465       3.78564003       0.00000000
