10
Lattice="16.28999089631971 0.0 0.0 0.0 16.28999089631971 0.0 0.0 0.0 34.54679606040008" Properties=species:S:1:pos:R:3:initial_magmoms:R:1 pbc="T T T"
Si       0.45255249       1.94250105      -1.16346765       0.00000000
Si      -1.06751628      -1.67881482      -1.22295726       0.00000000
Si       2.17352583      -0.69748893       0.55969296       0.00000000
Si      -0.92080854       0.95576688       1.98965474       0.00000000
Si       1.37464794      -1.89187173       2.48139411       0.00000000
Si       1.47439161       3.13093800       0.56117847       0.00000000
Si       3.10492517       1.41558471       1.10535990       0.00000000
Si      -0.24211827      -1.28392893      -3.47164402       0.00000000
Si      -0.18055836      -0.55773702       3.69326184       0.00000000
Si      -3.35753190      -1.67817951      -0.43594626       0.00000000
