10
Lattice="16.28999089631971 0.0 0.0 0.0 16.28999089631971 0.0 0.0 0.0 34.54679606040008" Properties=species:S:1:pos:R:3:initial_magmoms:R:1 pbc="T T T"
Si      -1.55520630       1.33413471       1.21186774       0.00000000
Si       0.79887789       1.19438280      -1.92170115       0.00000000
Si       1.78849606      -0.29400192       1.57713122       0.00000000
Si      -1.60076943      -1.70289144      -0.61451875       0.00000000
Si       0.19820043       2.42167140       2.32427519       0.00000000
Si      -1.37464794       1.89187173      -2.48139411       0.00000000
Si       2.50138556      -2.35219455       0.40202129       0.00000000
Si      -2.29545648       2.84763861      -0.49173937       0.00000000
Si       0.86856702       0.63434889       3.73133243       0.00000000
Si      -1.64138040      -1.89356589      -2.97448080       0.00000000
