10
Lattice="16.28999089631971 0.0 0.0 0.0 16.28999089631971 0.0 0.0 0.0 34.54679606040008" Properties=species:S:1:pos:R:3:initial_magmoms:R:1 pbc="T T T"
Si      -1.75340673      -1.08753669      -1.11240745       0.00000000
Si       0.67036659      -1.78732251       1.40705724       0.00000000
Si      -1.79929566       0.97816563       1.38346177       0.00000000
Si       1.97905811       0.83916306      -1.37112856       0.00000000
Si       1.59029563      -2.71567332      -0.74714398       0.00000000
Si      -0.19820043      -2.42167140      -2.32427519       0.00000000
Si       3.34597319      -0.91328256      -0.63459045       0.00000000
Si      -2.14032681       2.87448453      -0.07165010       0.00000000
Si       1.97232871      -0.52100307       2.96997387       0.00000000
Si      -2.49365691       0.42596721      -2.81601456       0.00000000
