10
Lattice="16.28999089631971 0.0 0.0 0.0 16.28999089631971 0.0 0.0 0.0 34.54679606040008" Properties=species:S:1:pos:R:3:initial_magmoms:R:1 pbc="T T T"
Si      -0.24241149      -2.35359549       0.10256949       0.00000000
Si      -0.40263993       0.81438597       2.21206713       0.00000000
Si       2.39567812       0.25306515      -0.24597333       0.00000000
Si      -1.43123940       1.12081716      -1.63537715       0.00000000
Si       0.97428716       2.69441487       1.88667068       0.00000000
Si       1.09571331      -3.01500207      -1.69075569       0.00000000
Si       2.92293818       1.30018635       1.80807668       0.00000000
Si       3.09043196      -1.93238496      -0.90415925       0.00000000
Si      -2.57409693      -2.70091458       0.44289017       0.00000000
Si      -1.84077000       3.42627570      -1.09319943       0.00000000
