10
Lattice="16.28999089631971 0.0 0.0 0.0 16.28999089631971 0.0 0.0 0.0 34.54679606040008" Properties=species:S:1:pos:R:3:initial_magmoms:R:1 pbc="T T T"
Si       2.19109364      -0.21390399      -0.80255707       0.00000000
Si       0.13919805       1.31362560       1.96253549       0.00000000
Si      -0.46519353      -2.05597719       1.09661956       0.00000000
Si      -1.05612957       0.92527200      -2.07180706       0.00000000
Si      -1.48703265      -3.24441414      -0.62802656       0.00000000
Si       2.26944854       1.41107238      -2.47579752       0.00000000
Si       0.32079752       2.80530090      -2.39720352       0.00000000
Si       2.30157242      -2.47702482      -1.52403276       0.00000000
Si      -3.75614820      -0.26244819      -0.17567056       0.00000000
Si       1.16508591       3.38626746       1.34805128       0.00000000
