10
Lattice="16.28999089631971 0.0 0.0 0.0 16.28999089631971 0.0 0.0 0.0 34.54679606040008" Properties=species:S:1:pos:R:3:initial_magmoms:R:1 pbc="T T T"
Si       0.57948417       1.93202658      -1.21369872       0.00000000
Si       0.17156628       0.08118936       2.37993011       0.00000000
Si       0.35272737      -1.98060336      -1.29809659       0.00000000
Si      -2.29693887      -0.01415601       0.68793073       0.00000000
Si      -1.59281991       2.17292310      -2.07374169       0.00000000
Si      -2.57548158       2.27924793       0.06674445       0.00000000
Si       2.70001863       1.18772019      -1.89613651       0.00000000
Si       1.56133134      -1.72862964       2.92418064       0.00000000
Si       3.75614820       0.26244819       0.17567056       0.00000000
Si      -1.63859481      -3.18992409      -1.17286438       0.00000000
