10
Lattice="16.28999089631971 0.0 0.0 0.0 16.28999089631971 0.0 0.0 0.0 34.54679606040008" Properties=species:S:1:pos:R:3:initial_magmoms:R:1 pbc="T T T"
Si       1.85922657       1.48895487       0.13566534       0.00000000
Si       0.34103115      -1.89631890       1.45511186       0.00000000
Si       0.31224672      -0.20844684      -2.52095021       0.00000000
Si      -2.30474178       0.80397666       1.64456660       0.00000000
Si       2.74759281       0.75681711       2.12853263       0.00000000
Si       1.29702609      -0.58927446       3.28667834       0.00000000
Si       2.14032681      -2.87448453       0.07165010       0.00000000
Si      -1.07751834       1.60137216      -3.06520074       0.00000000
Si      -0.35333010      -2.44851732      -2.74436447       0.00000000
Si       1.05055839       3.70387359      -0.15812077       0.00000000
