10
Lattice="16.28999089631971 0.0 0.0 0.0 16.28999089631971 0.0 0.0 0.0 34.54679606040008" Properties=species:S:1:pos:R:3:initial_magmoms:R:1 pbc="T T T"
Si      -1.35430173       1.35641943      -1.36643019       0.00000000
Si       1.36122498      -1.36163223      -1.36497922       0.00000000
Si      -1.37676564      -1.35210258       1.36003903       0.00000000
Si       1.37137365       1.36757808       1.38474000       0.00000000
Si       0.07747524      -2.59494813       2.71897256       0.00000000
Si      -2.70992295       2.71375519      -0.00687482       0.00000000
Si      -2.71217097      -2.71777473      -0.00994948       0.00000000
Si       2.71735119       2.71358948      -0.00608024       0.00000000
Si      -2.71143792      -0.00179190      -2.72360183       0.00000000
Si       0.00368154       2.71347711      -2.72315272       0.00000000
