10
Lattice="16.28999089631971 0.0 0.0 0.0 16.28999089631971 0.0 0.0 0.0 34.54679606040008" Properties=species:S:1:pos:R:3:initial_magmoms:R:1 pbc="T T T"
Si      -0.18775854       2.27783789      -0.46593290       0.00000000
Si      -0.34557606      -0.89989218       2.15876140       0.00000000
Si       2.14729893      -0.93105495      -0.42637680       0.00000000
Si      -0.98253135      -1.71227448      -1.38612187       0.00000000
Si       1.03433355      -3.02373351      -0.57112795       0.00000000
Si       3.14908410       0.10403215       1.45670102       0.00000000
Si       1.19048949       2.04718778      -2.57404867       0.00000000
Si       0.06395454      -3.20535072       1.61658368       0.00000000
Si       2.64822850       0.09045837      -2.48629976       0.00000000
Si      -2.36068164       0.22516398       2.77628572       0.00000000
