10
Lattice="16.28999089631971 0.0 0.0 0.0 16.28999089631971 0.0 0.0 0.0 34.54679606040008" Properties=species:S:1:pos:R:3:initial_magmoms:R:1 pbc="T T T"
Si       0.34557606       0.89989218      -2.15876140       0.00000000
Si      -2.01510558       1.12505616       0.61752432       0.00000000
Si       0.40953060      -2.30545854      -0.54217772       0.00000000
Si       2.03194944       0.65686167       1.17013518       0.00000000
Si       2.49287499      -0.03116277      -2.58513819       0.00000000
Si      -0.63695529      -0.81238230      -3.54488327       0.00000000
Si       3.49466016       1.00392433      -0.70206038       0.00000000
Si       1.37990961      -2.12384133      -2.72988935       0.00000000
Si      -1.31424462       2.85132734       2.10694118       0.00000000
Si       1.84077000      -3.42627570       1.09319943       0.00000000
