10
Lattice="16.28999089631971 0.0 0.0 0.0 16.28999089631971 0.0 0.0 0.0 34.54679606040008" Properties=species:S:1:pos:R:3:initial_magmoms:R:1 pbc="T T T"
Si       2.12053446      -0.74430639      -0.68243779       0.00000000
Si      -2.17230408       0.24089652      -0.86004297       0.00000000
Si      -0.57948417      -1.93202658       1.21369872       0.00000000
Si       0.61675569       1.96333596       1.18353935       0.00000000
Si      -3.15496575       0.34722135       1.28044316       0.00000000
Si       3.49746155       1.13572251      -1.00783424       0.00000000
Si       3.17666403      -1.66957839       1.38936927       0.00000000
Si       2.94519942       2.29433247       0.96019419       0.00000000
Si      -0.22675680      -3.91262994      -0.08439787       0.00000000
Si      -2.87642304      -1.94618259       1.90162945       0.00000000
