10
Lattice="16.28999089631971 0.0 0.0 0.0 16.28999089631971 0.0 0.0 0.0 34.54679606040008" Properties=species:S:1:pos:R:3:initial_magmoms:R:1 pbc="T T T"
Si       1.11247668       1.20713787       1.61278353       0.00000000
Si       0.11705994       1.14789114      -2.08365662       0.00000000
Si      -2.27379567      -0.31394088       0.66975911       0.00000000
Si       1.04001876      -2.15925579      -0.36830360       0.00000000
Si      -1.81011548      -2.60076366       0.85710649       0.00000000
Si       1.15479810      -0.65932146       3.09781293       0.00000000
Si      -1.93208034       0.19906380      -2.85456881       0.00000000
Si       2.86518294      -1.38083814      -1.56935818       0.00000000
Si      -0.31364766       3.01091328       2.07840551       0.00000000
Si      -0.79737921      -3.35526759      -1.26800631       0.00000000
