10
Lattice="16.28999089631971 0.0 0.0 0.0 16.28999089631971 0.0 0.0 0.0 34.54679606040008" Properties=species:S:1:pos:R:3:initial_magmoms:R:1 pbc="T T T"
Si      -1.78849606       0.29400192      -1.57713122       0.00000000
Si       0.71288950      -2.05819263      -1.17510992       0.00000000
Si       1.75567756       1.80239076       0.11255352       0.00000000
Si      -0.91992904       0.92835081       2.15420122       0.00000000
Si      -1.59029563       2.71567332       0.74714398       0.00000000
Si       2.65498330      -2.28613860       0.16492650       0.00000000
Si       0.38876248       3.55483638      -0.62398458       0.00000000
Si      -3.34370236       1.62813663      -0.36526348       0.00000000
Si      -0.98961817       1.48838472      -3.49883237       0.00000000
Si       1.74201025      -1.49343462      -3.27583267       0.00000000
