10
Lattice="16.28999089631971 0.0 0.0 0.0 16.28999089631971 0.0 0.0 0.0 34.54679606040008" Properties=species:S:1:pos:R:3:initial_magmoms:R:1 pbc="T T T"
Si       1.30702796       1.43431821       1.18816689       0.00000000
Si      -1.45056672      -1.34609157       1.15814571       0.00000000
Si      -0.88836624       0.73213776      -1.99286729       0.00000000
Si      -2.74759281      -0.75681711      -2.12853263       0.00000000
Si       0.02058923      -2.61609255       2.43955273       0.00000000
Si      -2.40656166      -2.65313601      -0.67342077       0.00000000
Si       2.72064158       0.08812890       2.44616845       0.00000000
Si      -2.71770066       0.12650814       2.45842220       0.00000000
Si       3.02964659       2.14967727      -0.18399634       0.00000000
Si      -0.00487809       2.84332176       2.46276474       0.00000000
