10
Lattice="16.28999089631971 0.0 0.0 0.0 16.28999089631971 0.0 0.0 0.0 34.54679606040008" Properties=species:S:1:pos:R:3:initial_magmoms:R:1 pbc="T T T"
Si      -1.41361362       1.34618931      -1.25800155       0.00000000
Si      -1.35756299      -1.32595713       1.36384263       0.00000000
Si       1.35751086       1.38598578       1.36062978       0.00000000
Si       1.27819485      -1.50250815      -1.54850227       0.00000000
Si       0.30900501       2.06154837      -2.63016479       0.00000000
Si       2.16147123       0.39869775      -2.78362143       0.00000000
Si      -2.72064158      -0.08812890      -2.44616845       0.00000000
Si       2.72222190      -2.67602346      -0.02546446       0.00000000
Si      -0.00715131      -2.68180641       2.72094518       0.00000000
Si      -2.70005235      -2.70422145      -0.00661572       0.00000000
