10
Lattice="16.28999089631971 0.0 0.0 0.0 16.28999089631971 0.0 0.0 0.0 34.54679606040008" Properties=species:S:1:pos:R:3:initial_magmoms:R:1 pbc="T T T"
Si       1.35727539      -1.35775521      -1.35703345       0.00000000
Si      -1.35740328      -1.35707103       1.35768984       0.00000000
Si      -1.35810375       1.35744570      -1.35679163       0.00000000
Si       1.35857533       1.35804843       1.35665344       0.00000000
Si       2.71191106       0.00022806      -2.71520695       0.00000000
Si      -0.00036578       2.71399545      -2.71465420       0.00000000
Si      -0.00108915      -2.71555929      -2.71368689       0.00000000
Si       2.71485955      -2.71453302       0.00069094       0.00000000
Si      -2.71475124       0.00188964      -2.71479239       0.00000000
Si       2.71492471       2.71464705       0.00024183       0.00000000
