10
Lattice="16.28999089631971 0.0 0.0 0.0 16.28999089631971 0.0 0.0 0.0 34.54679606040008" Properties=species:S:1:pos:R:3:initial_magmoms:R:1 pbc="T T T"
Si       1.35634938       1.35659862      -1.35641161       0.00000000
Si       1.35424797      -1.35806472       1.36048814       0.00000000
Si      -1.35857533      -1.35804843      -1.35665344       0.00000000
Si      -1.35784163       1.35589815       1.36003903       0.00000000
Si       2.70020922       0.01073511       2.71852345       0.00000000
Si       2.71288284       2.71365336       0.00096731       0.00000000
Si      -0.00140420       2.71415835      -2.71344507       0.00000000
Si       2.71377879      -0.00068418      -2.71382508       0.00000000
Si      -2.71658134       2.71226871       0.00200372       0.00000000
Si       2.71430007      -2.71482624       0.00093276       0.00000000
