10
Lattice="16.28999089631971 0.0 0.0 0.0 16.28999089631971 0.0 0.0 0.0 34.54679606040008" Properties=species:S:1:pos:R:3:initial_magmoms:R:1 pbc="T T T"
Si      -0.95767933       1.21125924      -1.69766505       0.00000000
Si       2.14368255       0.50453388       0.69394188       0.00000000
Si      -1.51523879      -0.78467301       1.61164348       0.00000000
Si       1.95998022      -1.45784097      -1.35236963       0.00000000
Si       0.43075647      -1.69341066       3.00325830       0.00000000
Si      -2.15849735      -0.28173555      -2.99365429       0.00000000
Si       2.24441991      -0.06071283       3.02650831       0.00000000
Si       0.60773103       2.51976978      -2.95285450       0.00000000
Si      -2.84072255       1.08284517       2.72287635       0.00000000
Si       0.57277269      -2.89334835      -2.83301159       0.00000000
