10
Lattice="16.28999089631971 0.0 0.0 0.0 16.28999089631971 0.0 0.0 0.0 34.54679606040008" Properties=species:S:1:pos:R:3:initial_magmoms:R:1 pbc="T T T"
Si       1.35775194       1.35705474       1.35651525       0.00000000
Si       1.35752225      -1.35829278      -1.35768984       0.00000000
Si      -1.35801328       1.35793440      -1.35779348       0.00000000
Si      -1.35765490      -1.36018242       1.35775894       0.00000000
Si      -0.00105628       2.71365336      -2.71413600       0.00000000
Si       2.71460794       2.71479777      -0.00048366       0.00000000
Si       2.71380973      -0.00061902      -2.71582880       0.00000000
Si      -2.71519834       2.71492692      -0.00041456       0.00000000
Si      -2.71516576      -2.71539639      -0.00051820       0.00000000
Si       2.71527583      -2.71585251      -0.00065639       0.00000000
