10
Lattice="16.28999089631971 0.0 0.0 0.0 16.28999089631971 0.0 0.0 0.0 34.54679606040008" Properties=species:S:1:pos:R:3:initial_magmoms:R:1 pbc="T T T"
Si       1.51765785       1.53180639       1.09171391       0.00000000
Si      -1.21936840       1.36744354      -1.63237157       0.00000000
Si      -1.29210488      -1.37285604       1.75145445       0.00000000
Si       1.48462173      -1.32928029      -1.63340798       0.00000000
Si      -2.63848220      -2.60332119       0.04425447       0.00000000
Si      -2.70566216       2.72367890      -0.27827460       0.00000000
Si      -2.57337107       0.01940267      -3.02305363       0.00000000
Si       2.78681175      -2.82742272      -0.28076197       0.00000000
Si       0.14095737      -2.69350263      -3.02042807       0.00000000
Si       0.14512761       2.73443030      -3.02028988       0.00000000
