10
Lattice="16.290000149 0.0 0.0 0.0 16.290000149 0.0 0.0 0.0 29.1751946751" Properties=species:S:1:pos:R:3:initial_magmoms:R:1 pbc="T T T"
Si       1.61538157      -0.17865243      -1.67699019       0.00000000
Si      -0.42505497       2.29225877      -0.29922080       0.00000000
Si       0.25754490      -0.51078924       2.29932773       0.00000000
Si      -1.89949547      -1.29982798      -0.63123451       0.00000000
H        1.34472322      -2.21877947       1.51290890       0.00000000
H       -2.80186374      -0.48394332      -1.54012935       0.00000000
Si      -1.48553398       1.03301407       2.75448848       0.00000000
Si       0.04820211      -0.95838958      -3.26630892       0.00000000
Si      -2.31875120       2.27809625       1.04152527       0.00000000
Si      -0.86012830      -2.79140556      -2.09253249       0.00000000
