10
Lattice="16.290000149 0.0 0.0 0.0 16.290000149 0.0 0.0 0.0 29.1751946751" Properties=species:S:1:pos:R:3:initial_magmoms:R:1 pbc="T T T"
Si      -1.08569593      -1.16393680       1.70508590       0.00000000
Si       0.87847084      -1.78052960      -1.28330011       0.00000000
Si       1.87483241       1.46070802       0.15535791       0.00000000
Si      -1.59690871       1.30326517      -1.21304624       0.00000000
H        0.47622186       2.29514699       1.78712655       0.00000000
H       -1.24025545      -0.36911511       2.98173407       0.00000000
H        2.59053356       1.54673551       1.48122463       0.00000000
Si       1.99891334      -0.33989085      -2.83509954       0.00000000
Si      -3.29808972      -1.08949150       0.89392796       0.00000000
Si      -0.28214280       2.65963574      -2.59889717       0.00000000
