10
Lattice="16.290000149 0.0 0.0 0.0 16.290000149 0.0 0.0 0.0 29.1751946751" Properties=species:S:1:pos:R:3:initial_magmoms:R:1 pbc="T T T"
Si      -1.34358292       1.35568639      -1.36983374       0.00000000
Si       1.32672766      -1.35050617      -1.39539121       0.00000000
Si      -1.34467435      -1.37112931       1.36186891       0.00000000
Si       1.34759352       1.37815030       1.35332058       0.00000000
Si       2.66657528      -2.70943427      -0.03334725       0.00000000
Si      -2.68698665       2.72029970      -0.01814697       0.00000000
Si      -2.71011845      -2.71285517      -0.00884008       0.00000000
Si       2.71878473       0.03424158       2.70815827       0.00000000
Si      -2.72653878      -0.02889846       2.70092282       0.00000000
Si       2.70801704       2.72551250      -0.00271329       0.00000000
