10
Lattice="16.290000149 0.0 0.0 0.0 16.290000149 0.0 0.0 0.0 29.1751946751" Properties=species:S:1:pos:R:3:initial_magmoms:R:1 pbc="T T T"
Si       1.72048466      -0.75626326      -1.37922815       0.00000000
Si       1.35910729       1.34920297       1.33788690       0.00000000
Si      -1.43018382       1.18560250      -1.45073656       0.00000000
Si      -1.19131052      -1.69230296       1.18693445       0.00000000
Si      -1.65580358      -0.66262834      -2.89272055       0.00000000
Si       0.65813230      -0.84154141      -3.48558968       0.00000000
Si       2.56670129      -2.60216462      -0.25878398       0.00000000
Si      -2.65192471      -0.40949802       2.52876000       0.00000000
Si      -0.08728182       2.54321111       2.69299475       0.00000000
Si       2.63875196      -0.14675661       2.67477630       0.00000000
