10
Lattice="16.290000149 0.0 0.0 0.0 16.290000149 0.0 0.0 0.0 29.1751946751" Properties=species:S:1:pos:R:3:initial_magmoms:R:1 pbc="T T T"
Si      -1.34578207       1.27938403       1.46077282       0.00000000
Si      -1.37169946      -1.40672296      -1.31203184       0.00000000
Si       1.33990138      -1.33605694       1.42156136       0.00000000
Si       1.34125345       1.41858208      -1.35950280       0.00000000
Si       2.67108761      -0.02177973      -2.67357399       0.00000000
Si       0.05955624      -2.77863420      -2.59680531       0.00000000
Si      -2.68064984      -2.69584841       0.15833378       0.00000000
Si      -2.77910661       2.59897178       0.17820209       0.00000000
Si      -2.72126081      -0.04465089      -2.68750223       0.00000000
Si       2.68828985       2.75175570       0.02859169       0.00000000
