10
Lattice="16.290000149 0.0 0.0 0.0 16.290000149 0.0 0.0 0.0 29.1751946751" Properties=species:S:1:pos:R:3:initial_magmoms:R:1 pbc="T T T"
Si       1.38186442      -1.34223085      -1.33905391       0.00000000
Si      -1.29727045       1.30134295      -1.46255251       0.00000000
Si       1.38924379       1.35946567       1.33047640       0.00000000
Si      -1.34920297      -1.39246921       1.34480142       0.00000000
Si      -2.77894371       0.05165559       2.46524560       0.00000000
Si      -2.65815335       2.67113648      -0.19987926       0.00000000
Si       2.71194293      -0.01503567       2.66611682       0.00000000
Si       0.01642032      -2.68395671      -2.70976291       0.00000000
Si      -2.70927137      -2.69954624      -0.04603846       0.00000000
Si       2.72653878       0.02889846      -2.70092282       0.00000000
