10
Lattice="16.290000149 0.0 0.0 0.0 16.290000149 0.0 0.0 0.0 29.1751946751" Properties=species:S:1:pos:R:3:initial_magmoms:R:1 pbc="T T T"
Si       1.35783667      -1.36625860       1.33569876       0.00000000
Si      -1.35692443      -1.36728487      -1.33701165       0.00000000
Si       1.37389861       1.33718095      -1.36169386       0.00000000
Si      -1.37749870       1.34832331       1.35501274       0.00000000
Si       2.64811871       0.07108956       2.65173344       0.00000000
Si       0.02728575      -2.72258193      -2.67110577       0.00000000
Si      -2.68558734      -0.00661374      -2.71122167       0.00000000
Si      -2.70813596       2.70707222      -0.00895678       0.00000000
Si       0.03039714       2.71999019      -2.70512405       0.00000000
Si      -2.70362363      -2.72163874       0.03935734       0.00000000
