10
Lattice="16.290000149 0.0 0.0 0.0 16.290000149 0.0 0.0 0.0 29.1751946751" Properties=species:S:1:pos:R:3:initial_magmoms:R:1 pbc="T T T"
Si       1.41838660      -1.33084414      -1.30246822       0.00000000
Si       1.37327959       1.32691825       1.36347355       0.00000000
Si      -1.35145099      -1.37541358       1.34652276       0.00000000
Si      -1.35213517       1.31843116      -1.40729469       0.00000000
Si       0.10660176      -2.69133608      -2.64765767       0.00000000
Si       0.00439830       2.70624143       2.68589760       0.00000000
Si       2.75325438       2.64438830      -0.00002918       0.00000000
Si      -2.72103275      -0.01161477       2.68254245       0.00000000
Si      -2.71477739       2.69272073      -0.05835039       0.00000000
Si       0.01510083       2.66836718      -2.75738849       0.00000000
