10
Lattice="16.290000149 0.0 0.0 0.0 16.290000149 0.0 0.0 0.0 29.1751946751" Properties=species:S:1:pos:R:3:initial_magmoms:R:1 pbc="T T T"
Si      -1.43332453       1.31958775      -1.28257073       0.00000000
Si      -1.37997478      -1.31747005       1.36350272       0.00000000
Si       1.33540534       1.40439349       1.33817865       0.00000000
Si       1.34578207      -1.27938403      -1.46077282       0.00000000
Si      -0.07731234       2.66004299      -2.59749676       0.00000000
Si       2.68568345      -2.61544097      -0.03921146       0.00000000
Si      -0.02386485      -2.68745906       2.70229406       0.00000000
Si      -2.75325438      -2.64438830       0.00002918       0.00000000
Si       2.69832449       0.06501339       2.70229406       0.00000000
Si      -2.74885608       0.06185313       2.68592677       0.00000000
