10
Lattice="16.290000149 0.0 0.0 0.0 16.290000149 0.0 0.0 0.0 29.1751946751" Properties=species:S:1:pos:R:3:initial_magmoms:R:1 pbc="T T T"
Si      -1.31131080       0.27323217       1.91558493       0.00000000
Si       2.21239379      -0.07444530       0.81115794       0.00000000
Si      -1.29999903      -0.13308930      -2.02560459       0.00000000
Si      -0.53965512       2.38699001       0.74204190       0.00000000
Si      -0.52321851      -1.98995384       1.69881324       0.00000000
H        2.05783427       0.72037639       2.08780611       0.00000000
H       -2.43326339       0.83781100      -1.73434862       0.00000000
H        0.22486716      -1.60621030      -2.70839167       0.00000000
H        0.65653588       2.75011041       1.63375255       0.00000000
H        0.75777823      -1.95183524       2.52067847       0.00000000
