10
Lattice="16.290000149 0.0 0.0 0.0 16.290000149 0.0 0.0 0.0 29.1751946751" Properties=species:S:1:pos:R:3:initial_magmoms:R:1 pbc="T T T"
H       -0.89814916       0.74606572       0.97748572       0.00000000
Si       1.15067674       1.63800838      -1.18544651       0.00000000
Si       1.40016396      -1.17087634       1.46275674       0.00000000
Si      -1.59402538      -1.13168260      -1.33695330       0.00000000
Si      -0.62749081       2.78619276      -2.21241336       0.00000000
Si      -1.98532748       2.45405594       1.76390455       0.00000000
Si       2.62190485       0.42422418      -2.51673982       0.00000000
Si      -0.05923044      -2.34962075       2.87904906       0.00000000
Si      -2.24287238       2.96484519      -0.53542317       0.00000000
Si       2.86077815      -2.45368127       0.12093118       0.00000000
