10
Lattice="16.290000149 0.0 0.0 0.0 16.290000149 0.0 0.0 0.0 29.1751946751" Properties=species:S:1:pos:R:3:initial_magmoms:R:1 pbc="T T T"
Si      -1.37845981       1.34729704       1.32151962       0.00000000
Si      -1.37039626      -1.36138789      -1.32752971       0.00000000
Si       1.35179308       1.39108456      -1.32752971       0.00000000
Si       1.35624025      -1.32890563       1.38821411       0.00000000
Si       0.04254948       2.65639403       2.63542451       0.00000000
Si       0.01443294      -2.67594203      -2.68613100       0.00000000
Si       2.70260876      -2.67630041       0.02045181       0.00000000
Si      -2.72650619       0.00860112      -2.66632104       0.00000000
Si      -2.72719037      -0.01088172       2.67457762       0.00000000
Si       2.69547374       0.06046848      -2.71469351       0.00000000
