10
Lattice="16.290000149 0.0 0.0 0.0 16.290000149 0.0 0.0 0.0 29.1751946751" Properties=species:S:1:pos:R:3:initial_magmoms:R:1 pbc="T T T"
H       -0.59580676      -0.09759339      -1.40148883       0.00000000
Si      -1.71471800       0.44085627       1.52618361       0.00000000
Si       0.47941470      -2.02937564       1.05853441       0.00000000
H        1.51850494      -0.84600487      -1.70739074       0.00000000
Si       1.89540668       1.50265477       0.31719272       0.00000000
Si       0.80280379      -0.93203236      -3.03325746       0.00000000
Si      -2.56093463       2.28675764       0.40573943       0.00000000
Si      -0.33752880       1.46759869       3.15964441       0.00000000
Si       2.07386363      -1.21500595       2.61861960       0.00000000
Si       0.92735713       2.95155255       1.83652015       0.00000000
