10
Lattice="16.290000149 0.0 0.0 0.0 16.290000149 0.0 0.0 0.0 29.1751946751" Properties=species:S:1:pos:R:3:initial_magmoms:R:1 pbc="T T T"
Si       1.44638911      -1.19400814      -1.35510785       0.00000000
Si      -1.34434692      -1.46284201       1.23372095       0.00000000
Si      -1.35652370       1.24067899      -1.46025525       0.00000000
Si       1.42746013       1.35881407       1.27931303       0.00000000
Si      -2.70519887      -0.00377928       2.51905166       0.00000000
Si       0.08728182      -2.54321111      -2.69299475       0.00000000
Si      -2.52638745       2.83226169      -0.17266639       0.00000000
Si       0.09796806       2.67327047       2.69856663       0.00000000
Si       2.75651238      -0.03686427       2.64885210       0.00000000
Si       0.04157208      -2.80243389       2.60575159       0.00000000
