10
Lattice="16.290000149 0.0 0.0 0.0 16.290000149 0.0 0.0 0.0 29.1751946751" Properties=species:S:1:pos:R:3:initial_magmoms:R:1 pbc="T T T"
Si       0.81627562      -0.98401375      -1.94277621       0.00000000
Si      -1.33234282      -1.33134913       1.39661657       0.00000000
Si       1.59402538       1.13168260       1.33695330       0.00000000
Si      -1.50897529       1.30512223      -1.29100236       0.00000000
H        1.27189063       0.30007809      -2.60093943       0.00000000
H        0.69587623       1.87774832       2.31443902       0.00000000
Si      -1.06246639      -1.68733451      -3.21924933       0.00000000
Si      -2.54834246       2.79669981       0.17029561       0.00000000
Si      -2.89794216      -2.45097713      -0.07322974       0.00000000
Si      -2.53006508       0.14116914       2.82725142       0.00000000
