10
Lattice="16.290000149 0.0 0.0 0.0 16.290000149 0.0 0.0 0.0 29.1751946751" Properties=species:S:1:pos:R:3:initial_magmoms:R:1 pbc="T T T"
Si      -1.14802147      -0.11813508       2.05930194       0.00000000
Si      -1.50438151       1.02092689      -1.50882437       0.00000000
Si       1.01112031      -1.75373255      -1.27282622       0.00000000
Si       1.52715493       1.84060712       0.44092472       0.00000000
H       -2.04058316      -2.78337459      -0.92176110       0.00000000
H        0.72451405      -2.95619520       1.92314131       0.00000000
Si       2.31839282      -0.46240794      -2.76522495       0.00000000
Si      -2.53713494       2.63691934      -0.18339527       0.00000000
Si      -0.19520307       2.45876082      -2.77531957       0.00000000
Si       0.41915799       0.66160207       3.64862067       0.00000000
