10
Lattice="16.290000149 0.0 0.0 0.0 16.290000149 0.0 0.0 0.0 29.1751946751" Properties=species:S:1:pos:R:3:initial_magmoms:R:1 pbc="T T T"
Si      -1.35847198      -1.36588393      -1.33097238       0.00000000
Si      -1.34636851       1.34739478       1.36776230       0.00000000
Si       1.33690402      -1.37485972       1.35264955       0.00000000
Si       1.33863076       1.35684298      -1.38033681       0.00000000
Si      -2.70260876       2.67630041      -0.02045181       0.00000000
Si       2.67961869      -0.01399311       2.70646611       0.00000000
Si      -2.68817582       0.00035838      -2.70658281       0.00000000
Si       0.00648342      -2.71375112      -2.68102534       0.00000000
Si       2.69047760       2.70974378      -0.01878883       0.00000000
Si      -2.69952995      -0.02818170       2.71057981       0.00000000
