10
Lattice="16.290000149 0.0 0.0 0.0 16.290000149 0.0 0.0 0.0 29.1751946751" Properties=species:S:1:pos:R:3:initial_magmoms:R:1 pbc="T T T"
Si      -1.37065690       1.34584723       1.33858711       0.00000000
Si      -1.38585547      -1.35035956      -1.32449549       0.00000000
Si       1.36345672      -1.36539523       1.33502773       0.00000000
Si       1.37036368       1.35817876      -1.33788690       0.00000000
Si       0.00781920       2.68136660       2.68298008       0.00000000
Si      -0.05585841      -2.76972845      -2.61094652       0.00000000
Si      -0.00226431      -2.71321030       2.68315513       0.00000000
Si       2.69716790      -0.00100998      -2.70416127       0.00000000
Si      -2.72093501      -0.01886382       2.69432923       0.00000000
Si      -2.71692767       2.70456356      -0.03028385       0.00000000
