10
Lattice="16.290000149 0.0 0.0 0.0 16.290000149 0.0 0.0 0.0 29.1751946751" Properties=species:S:1:pos:R:3:initial_magmoms:R:1 pbc="T T T"
Si       0.84356137      -1.87839992      -1.11034956       0.00000000
Si       1.48607155       1.25009461       1.37415167       0.00000000
Si      -1.38328165       1.31841487      -1.43270628       0.00000000
Si      -1.31396770      -1.36782244       1.48242082       0.00000000
H        1.37217187      -1.61960068      -2.49707574       0.00000000
H        2.57533499       0.15382647      -2.14633155       0.00000000
Si       0.00195480       2.55036650       2.70888765       0.00000000
Si      -2.80241760       2.49618188       0.03180096       0.00000000
H       -0.17040969      -0.77059846      -3.67496587       0.00000000
Si       2.53570142      -2.80849377       0.19608648       0.00000000
