10
Lattice="16.290000149 0.0 0.0 0.0 16.290000149 0.0 0.0 0.0 29.1751946751" Properties=species:S:1:pos:R:3:initial_magmoms:R:1 pbc="T T T"
Si      -1.35738707       1.40745601      -1.31215438       0.00000000
Si       1.17271711       1.46898334       1.44922820       0.00000000
Si      -1.48863397      -1.19922094       1.43369532       0.00000000
Si       1.00696636      -1.24010884      -1.84328880       0.00000000
Si      -2.46414434      -0.29776491      -2.56432456       0.00000000
Si      -1.05023260      -2.24696117      -2.56721290       0.00000000
Si       2.40062474       0.49759434      -2.75787280       0.00000000
Si      -0.12935889      -2.53812863       2.81421010       0.00000000
Si       2.54703926       0.11735316       2.80939620       0.00000000
Si       2.47267541       2.95300236       0.17568748       0.00000000
