10
Lattice="16.290000149 0.0 0.0 0.0 16.290000149 0.0 0.0 0.0 29.1751946751" Properties=species:S:1:pos:R:3:initial_magmoms:R:1 pbc="T T T"
Si       1.44098083      -0.28901718      -0.44212090       0.00000000
Si      -1.98439895       0.08741214       1.05675473       0.00000000
Si      -1.22225500       1.96063184      -0.22249003       0.00000000
Si       0.65648701       2.66395259       1.05398308       0.00000000
Si       1.08388774      -0.05139495      -2.80318188       0.00000000
Si      -0.59352616       1.62618184      -2.55198345       0.00000000
Si      -0.96045841      -1.24815610       2.67556958       0.00000000
Si       1.88959115      -2.42349590       0.44658470       0.00000000
Si       2.66771558       1.29793834       0.97089213       0.00000000
H        1.62675199       2.40916070      -1.42605434       0.00000000
