10
Lattice="16.290000149 0.0 0.0 0.0 16.290000149 0.0 0.0 0.0 29.1751946751" Properties=species:S:1:pos:R:3:initial_magmoms:R:1 pbc="T T T"
Si       0.59580676       0.09759339       1.40148883       0.00000000
H        2.11431170      -0.74841148      -0.30590192       0.00000000
Si       1.39861054      -0.83443897      -1.63176864       0.00000000
Si      -0.47622186      -2.29514699      -1.78712655       0.00000000
Si      -1.11891124       0.53844966       2.92767244       0.00000000
H       -3.11777571      -0.63452809       0.74055397       0.00000000
Si       1.07522146      -1.93178225       2.46002324       0.00000000
Si       1.05725359       1.11596275      -3.00314866       0.00000000
H       -1.71647732      -2.66426210       1.19460752       0.00000000
Si       2.49121343       1.60024816       1.71868154       0.00000000
