10
Lattice="16.290000149 0.0 0.0 0.0 16.290000149 0.0 0.0 0.0 29.1751946751" Properties=species:S:1:pos:R:3:initial_magmoms:R:1 pbc="T T T"
Si      -1.34965909      -1.34333857      -1.31297129       0.00000000
Si       1.39580866      -1.28317960       1.35912644       0.00000000
Si       1.38528532       1.33382521      -1.34121287       0.00000000
Si      -1.18221418       1.45295398       1.41202107       0.00000000
Si       2.27535464       0.60514093       2.42810558       0.00000000
Si       0.67424311       2.38213559       2.51878208       0.00000000
Si      -2.65974977       0.08327448      -2.61085900       0.00000000
Si       0.08736327      -2.67851585      -2.59463759       0.00000000
Si      -2.72150516      -2.59719617       0.11865552       0.00000000
Si       0.02384856      -2.60530859       2.71682330       0.00000000
