10
Lattice="16.290000149 0.0 0.0 0.0 16.290000149 0.0 0.0 0.0 29.1751946751" Properties=species:S:1:pos:R:3:initial_magmoms:R:1 pbc="T T T"
Si      -1.34702011      -1.29727045       1.36922106       0.00000000
Si       1.25359696       1.32452036       1.46643281       0.00000000
Si       1.36547668      -1.36770841      -1.34923605       0.00000000
Si      -1.42094413       1.36177234      -1.30468553       0.00000000
Si       2.41544864       2.76232791      -0.03760683       0.00000000
Si       2.70961346       0.01241298      -2.66080693       0.00000000
Si      -0.04668714      -2.69239493      -2.70372364       0.00000000
Si      -0.11675043       2.71480997      -2.72487566       0.00000000
Si      -2.76501576      -2.68076387       0.06809490       0.00000000
Si      -2.77115709       0.01969461      -2.69009882       0.00000000
