10
Lattice="16.290000149 0.0 0.0 0.0 16.290000149 0.0 0.0 0.0 29.1751946751" Properties=species:S:1:pos:R:3:initial_magmoms:R:1 pbc="T T T"
Si       1.35119035       1.35553978      -1.33709917       0.00000000
Si       1.39531996      -1.45010323       1.19472422       0.00000000
Si      -1.37904625      -1.36510201      -1.33566959       0.00000000
Si      -1.30178278       1.34768800       1.43226866       0.00000000
Si      -0.02002041      -2.77682601       2.43254021       0.00000000
Si       2.65597049       2.67186791       0.10841502       0.00000000
Si      -0.02292003       2.70220477      -2.67320639       0.00000000
Si       2.70560612      -0.02972925      -2.67203938       0.00000000
Si      -2.64591956      -0.03243339       2.74383953       0.00000000
Si      -2.70342326       2.68752911       0.07077902       0.00000000
