10
Lattice="16.290000149 0.0 0.0 0.0 16.290000149 0.0 0.0 0.0 29.1751946751" Properties=species:S:1:pos:R:3:initial_magmoms:R:1 pbc="T T T"
Si      -0.47941470       2.02937564      -1.05853441       0.00000000
Si       1.59444892       0.81436969       1.56008518       0.00000000
Si       1.29516904      -1.50197059      -1.32271580       0.00000000
Si      -1.86945671      -0.89801884       1.27638559       0.00000000
H       -2.79169878      -0.73247986      -1.26541572       0.00000000
H        1.03909024       1.18337077      -2.76592516       0.00000000
H       -1.07522146       1.93178225      -2.46002324       0.00000000
Si      -2.19413270       2.47023191       0.46764920       0.00000000
Si       2.22083201      -2.54291789       0.51362930       0.00000000
Si       3.29535300      -0.78341869       1.57502288       0.00000000
