10
Lattice="16.290000149 0.0 0.0 0.0 16.290000149 0.0 0.0 0.0 29.1751946751" Properties=species:S:1:pos:R:3:initial_magmoms:R:1 pbc="T T T"
Si      -1.41458940       1.22521978      -1.37946155       0.00000000
Si      -1.31439124      -1.48880827       1.26786644       0.00000000
Si       1.50278509      -1.33107220      -1.25339554       0.00000000
Si       0.66891628       1.87128119       1.30153461       0.00000000
Si       0.24946506      -2.56394828       2.63236111       0.00000000
Si       0.03978018       2.61016301      -2.59918892       0.00000000
Si      -2.75884185       2.51607197       0.04198311       0.00000000
Si       0.06551838      -2.73733905      -2.57068475       0.00000000
Si      -2.70839171      -0.18062352      -2.69963911       0.00000000
Si      -1.00276354       3.52624746       1.21590541       0.00000000
