10
Lattice="16.290000149 0.0 0.0 0.0 16.290000149 0.0 0.0 0.0 29.1751946751" Properties=species:S:1:pos:R:3:initial_magmoms:R:1 pbc="T T T"
Si       1.34271467       1.36086661       1.35381656       0.00000000
Si      -1.33690402       1.37485972      -1.35264955       0.00000000
Si       1.36526328      -1.35281935      -1.34844832       0.00000000
Si      -1.35325918      -1.34811154       1.37371404       0.00000000
Si      -2.69537600       0.00897579      -2.68362193       0.00000000
Si       2.67335192       0.00211770       2.71778608       0.00000000
Si      -0.00490329      -2.72202644      -2.67352731       0.00000000
Si      -2.68327253       2.72225450       0.01511275       0.00000000
Si       2.69392619      -2.71349048       0.02576170       0.00000000
Si       2.69342120       2.72567540      -0.00939441       0.00000000
