10
Lattice="16.290000149 0.0 0.0 0.0 16.290000149 0.0 0.0 0.0 29.1751946751" Properties=species:S:1:pos:R:3:initial_magmoms:R:1 pbc="T T T"
Si      -0.71570116      -0.08602749      -1.32586672       0.00000000
H       -2.11431170       0.74841148       0.30590192       0.00000000
H        1.14559426       1.63905094      -1.12321582       0.00000000
H        1.79530463       1.21454983      -1.08272065       0.00000000
Si      -1.51850494       0.84600487       1.70739074       0.00000000
Si       0.25607880      -2.68534136       1.44320935       0.00000000
Si       2.25062642      -2.08529921       0.27459693       0.00000000
Si       0.89612920      -0.87504994      -2.84615694       0.00000000
Si       0.37690173       2.34865964       2.02458346       0.00000000
Si      -1.03909024      -1.18337077       2.76592516       0.00000000
