10
Lattice="16.290000149 0.0 0.0 0.0 16.290000149 0.0 0.0 0.0 29.1751946751" Properties=species:S:1:pos:R:3:initial_magmoms:R:1 pbc="T T T"
Si       1.33063726      -1.35874891       1.36396953       0.00000000
Si      -1.34271467      -1.36086661      -1.35381656       0.00000000
Si      -1.31924078       1.33889140       1.40566088       0.00000000
Si       1.35070654       1.36480879      -1.36321097       0.00000000
Si       2.63965280       0.07003071       2.69006965       0.00000000
Si      -2.66054310       2.70311375       0.03200519       0.00000000
Si      -2.67961869       0.01399311      -2.70646611       0.00000000
Si      -2.69597385      -2.70897815       0.01989748       0.00000000
Si       2.70813596      -2.70707222       0.00895678       0.00000000
Si       0.02254862      -2.71368596      -2.70226488       0.00000000
