10
Lattice="16.290000149 0.0 0.0 0.0 16.290000149 0.0 0.0 0.0 29.1751946751" Properties=species:S:1:pos:R:3:initial_magmoms:R:1 pbc="T T T"
Si       1.36014985       1.36264222      -1.34366359       0.00000000
Si      -1.36528120      -1.35521398      -1.34701874       0.00000000
Si       1.35086455      -1.37616292       1.34237988       0.00000000
Si      -1.37474569       1.36451557       1.33219774       0.00000000
Si      -0.02402775       2.70034445      -2.69380407       0.00000000
Si       2.72903114      -0.01668096      -2.66608764       0.00000000
Si       0.00430056      -2.71901279      -2.68303843       0.00000000
Si       2.72834696      -0.03616380       2.67481102       0.00000000
Si      -0.02585223       2.72557766       2.68076276       0.00000000
Si      -2.71370225      -2.70265763       0.03098406       0.00000000
