10
Lattice="16.290000149 0.0 0.0 0.0 16.290000149 0.0 0.0 0.0 29.1751946751" Properties=species:S:1:pos:R:3:initial_magmoms:R:1 pbc="T T T"
Si       1.29842704       1.28305661       1.50607898       0.00000000
Si      -1.33485148      -1.36536673       1.40795405       0.00000000
Si       1.48411675      -1.30027188      -1.33473598       0.00000000
Si      -1.35651718       1.38554352      -1.40087615       0.00000000
Si      -0.00195480      -2.55036650      -2.70888765       0.00000000
Si      -2.60651405       2.72831031       0.08665529       0.00000000
Si       2.69845481      -2.71518872       0.11472824       0.00000000
Si       2.28758843       3.06934147       0.35292649       0.00000000
Si       2.36941310       2.37559923      -1.87657770       0.00000000
Si       3.10101330       0.18519694      -2.27654044       0.00000000
