10
Lattice="16.290000149 0.0 0.0 0.0 16.290000149 0.0 0.0 0.0 29.1751946751" Properties=species:S:1:pos:R:3:initial_magmoms:R:1 pbc="T T T"
Si       1.34368066      -1.33061608      -1.38716381       0.00000000
Si      -1.36291915       1.33938010      -1.36411540       0.00000000
Si      -1.35179308      -1.39108456       1.32752971       0.00000000
Si       1.37098270       1.34855137       1.35475016       0.00000000
Si      -2.73025289      -0.04378752       2.64904933       0.00000000
Si       2.68944644      -2.71054199      -0.03235529       0.00000000
Si      -2.69832449      -0.06501339      -2.70229406       0.00000000
Si      -2.71785620       2.69254154       0.00148794       0.00000000
Si       0.02757897       2.71316468       2.70643693       0.00000000
Si      -0.00750969       2.71026506      -2.71014218       0.00000000
