10
Lattice="16.290000149 0.0 0.0 0.0 16.290000149 0.0 0.0 0.0 29.1751946751" Properties=species:S:1:pos:R:3:initial_magmoms:R:1 pbc="T T T"
Si       0.74049454      -1.32732550       1.78876036       0.00000000
Si      -1.76870306       0.97526602       1.24715205       0.00000000
Si       1.36643779       1.83982520      -0.76161846       0.00000000
Si       0.10541259      -1.72377524      -1.81008743       0.00000000
H       -2.15280497      -0.24571836      -1.33406495       0.00000000
Si       2.85394287       0.60025393      -2.06691667       0.00000000
Si       2.75509515      -2.20695293       0.80424342       0.00000000
Si      -0.79257367      -3.16811995       1.71153362       0.00000000
Si      -2.80684848       0.59795704      -2.40622418       0.00000000
Si       1.54935820      -3.34627847      -0.88039067       0.00000000
