10
Lattice="16.290000149 0.0 0.0 0.0 16.290000149 0.0 0.0 0.0 29.1751946751" Properties=species:S:1:pos:R:3:initial_magmoms:R:1 pbc="T T T"
Si      -1.33063726       1.35874891      -1.36396953       0.00000000
Si       1.30901554       1.42877962       1.32610012       0.00000000
Si      -1.33946644      -1.37021707       1.36151881       0.00000000
Si       1.37749870      -1.34832331      -1.35501274       0.00000000
Si       2.66499515       0.07222986       2.63011462       0.00000000
Si      -2.64987803       2.69764031       0.04169135       0.00000000
Si       2.68086161       2.68263722      -0.10552668       0.00000000
Si      -2.60732399       0.00272043       2.77835379       0.00000000
Si      -2.67335192      -0.00211770      -2.71778608       0.00000000
Si       0.02057427      -2.71560818      -2.69202439       0.00000000
