10
Lattice="16.290000149 0.0 0.0 0.0 16.290000149 0.0 0.0 0.0 29.1751946751" Properties=species:S:1:pos:R:3:initial_magmoms:R:1 pbc="T T T"
Si      -1.03936717       1.49157757       1.46129798       0.00000000
Si       0.90833041       1.83301598      -1.17377643       0.00000000
Si      -1.33810948      -1.44873487      -1.29815029       0.00000000
Si       1.50897529      -1.30512223       1.29100236       0.00000000
H       -1.94173544       2.30746223       0.55240314       0.00000000
H        2.78086593      -1.00504414      -1.30993707       0.00000000
Si       2.32525091      -2.28913598      -0.65177385       0.00000000
Si       0.44650890      -2.99245674      -1.92824697       0.00000000
Si       0.86012830       2.79140556       2.09253249       0.00000000
Si       2.47550987       2.61275312       0.41554230       0.00000000
