10
Lattice="16.290000149 0.0 0.0 0.0 16.290000149 0.0 0.0 0.0 29.1751946751" Properties=species:S:1:pos:R:3:initial_magmoms:R:1 pbc="T T T"
Si       1.30054474      -1.34902378       1.41849797       0.00000000
Si      -1.37767789       1.34915410       1.35034471       0.00000000
Si      -1.42905655      -1.40348125      -1.24225645       0.00000000
Si       1.42752529       1.38997684      -1.28147083       0.00000000
Si      -2.63192645      -0.00692325      -2.68410332       0.00000000
Si       2.71451675      -0.05844852      -2.61073646       0.00000000
Si       0.05194881       2.65382021      -2.69825621       0.00000000
Si      -0.11417661      -2.72677172      -2.64280875       0.00000000
Si       2.63054180      -2.76839267       0.13204693       0.00000000
Si      -0.03052746       2.70589934       2.71270960       0.00000000
