10
Lattice="16.290000149 0.0 0.0 0.0 16.290000149 0.0 0.0 0.0 29.1751946751" Properties=species:S:1:pos:R:3:initial_magmoms:R:1 pbc="T T T"
Si       1.05832873      -1.46539954      -1.47833629       0.00000000
Si      -1.31476591      -1.35637057       1.38585092       0.00000000
Si      -1.44596557       1.35254242      -1.28315424       0.00000000
Si       1.81561826       0.75147400       1.38287505       0.00000000
Si       2.15697521      -1.19892772       2.75425508       0.00000000
Si       0.28214280      -2.65963574       2.59889717       0.00000000
Si       2.43028883      -0.14327055      -2.83603315       0.00000000
Si      -2.69928560       0.11966634       2.60260242       0.00000000
Si       2.28105614      -2.99952660      -0.23620238       0.00000000
Si      -0.14773401       2.59286303      -2.78313852       0.00000000
