10
Lattice="16.290000149 0.0 0.0 0.0 16.290000149 0.0 0.0 0.0 29.1751946751" Properties=species:S:1:pos:R:3:initial_magmoms:R:1 pbc="T T T"
Si      -1.37075464       1.36053755      -1.31323386       0.00000000
Si      -1.38694690      -1.35940051       1.30427708       0.00000000
Si       1.32403492      -1.35200485      -1.38401288       0.00000000
Si       1.35583300       1.37172390       1.33777020       0.00000000
Si      -0.00421911      -2.70498710       2.64029677       0.00000000
Si      -0.02448387       2.69099399      -2.65935400       0.00000000
Si       2.67349853       0.04369563      -2.69413084       0.00000000
Si      -2.70405857       0.01150074       2.69333727       0.00000000
Si       2.73862595       0.01210347       2.65902724       0.00000000
Si      -0.00343719       2.72940581       2.67752432       0.00000000
