10
Lattice="16.290000149 0.0 0.0 0.0 16.290000149 0.0 0.0 0.0 29.1751946751" Properties=species:S:1:pos:R:3:initial_magmoms:R:1 pbc="T T T"
Si       1.75607831       1.01017549       1.17392231       0.00000000
Si       1.34425244      -1.29085219      -1.42144466       0.00000000
Si      -1.21948570       1.50920335      -1.35285378       0.00000000
Si      -1.30727251      -1.29132460       1.49239873       0.00000000
H        0.80335928       3.02907014       0.53066762       0.00000000
H       -3.15363000      -0.79099354      -1.58858935       0.00000000
Si      -2.31839282       0.46240794       2.76522495       0.00000000
Si      -2.50396850       0.04694778      -2.65602220       0.00000000
Si       3.42775812      -0.64479079       1.25955150       0.00000000
Si       2.75884185      -2.51607197      -0.04198311       0.00000000
