10
Lattice="16.290000149 0.0 0.0 0.0 16.290000149 0.0 0.0 0.0 29.1751946751" Properties=species:S:1:pos:R:3:initial_magmoms:R:1 pbc="T T T"
Si      -1.42974073       1.44412480       1.12044418       0.00000000
Si      -1.36006840      -1.30707703      -1.39083988       0.00000000
Si       1.34920297       1.39246921      -1.34480142       0.00000000
Si       1.33108849      -1.31691619       1.44207152       0.00000000
H       -0.58564180       2.37905678       1.92961820       0.00000000
Si      -2.70412373      -2.63855648      -0.01937233       0.00000000
Si       2.71661816      -2.66046653       0.08090281       0.00000000
Si       0.01246185      -2.66706398      -2.71174682       0.00000000
Si       2.73106740       0.05023836      -2.68385533       0.00000000
Si      -2.72429075       2.73688293      -0.30686470       0.00000000
