10
Lattice="16.290000149 0.0 0.0 0.0 16.290000149 0.0 0.0 0.0 29.1751946751" Properties=species:S:1:pos:R:3:initial_magmoms:R:1 pbc="T T T"
Si       1.35992179      -1.35192340      -1.35317470       0.00000000
Si       1.37430586       1.36331011       1.33228526       0.00000000
Si      -1.35526285       1.35086455      -1.36875426       0.00000000
Si      -1.35560494      -1.34646625       1.37301384       0.00000000
Si       0.00177561       2.72329706       2.65319220       0.00000000
Si       2.68415219      -2.71598285       0.03903641       0.00000000
Si      -2.71388144      -2.69358410       0.00507648       0.00000000
Si      -2.72476317       0.04035033       2.68499317       0.00000000
Si       0.00037467      -2.69589728      -2.71670660       0.00000000
Si       2.71536383       0.02560788      -2.70926693       0.00000000
