10
Lattice="16.290000149 0.0 0.0 0.0 16.290000149 0.0 0.0 0.0 29.1751946751" Properties=species:S:1:pos:R:3:initial_magmoms:R:1 pbc="T T T"
H        1.08717832      -1.70799023      -0.78641883       0.00000000
Si      -0.25754490       0.51078924      -2.29932773       0.00000000
Si      -1.74307889       1.54380331       0.45516075       0.00000000
Si       1.94367395       0.85245571       1.06140088       0.00000000
Si      -0.83069227      -1.99656758       1.09454390       0.00000000
Si       0.71451199       2.05360262       2.65990104       0.00000000
Si      -2.16808499      -0.84246994       2.65199456       0.00000000
Si       1.98532748      -2.45405594      -1.76390455       0.00000000
Si      -2.15704037      -0.78903874      -2.93056224       0.00000000
Si      -0.70268545       3.39739193       1.40670681       0.00000000
