10
Lattice="16.290000149 0.0 0.0 0.0 16.290000149 0.0 0.0 0.0 29.1751946751" Properties=species:S:1:pos:R:3:initial_magmoms:R:1 pbc="T T T"
Si       1.83001699      -0.27649995      -0.63406451       0.00000000
Si       0.49173483       1.19636205      -1.81840236       0.00000000
Si       0.95271903      -2.01889465       0.64325469       0.00000000
Si      -0.72599784       2.49359829      -0.22844177       0.00000000
Si      -2.11121823       1.03142417       1.14387186       0.00000000
Si       0.68223335      -1.20540463       2.80198570       0.00000000
Si       2.71039376       1.40848880       0.72742513       0.00000000
Si      -2.02284498      -1.51986679      -1.88352139       0.00000000
Si      -0.80335928      -3.02907014      -0.53066762       0.00000000
Si      -1.59459716      -0.72605508       2.67548205       0.00000000
