10
Lattice="16.290000149 0.0 0.0 0.0 16.290000149 0.0 0.0 0.0 29.1751946751" Properties=species:S:1:pos:R:3:initial_magmoms:R:1 pbc="T T T"
Si      -1.38719125      -1.27459477      -1.37812912       0.00000000
Si       1.20286990      -1.39655800       1.44184687       0.00000000
Si      -1.41898933       1.38181555       1.28416078       0.00000000
Si       1.87408307       0.80176123      -1.19576169       0.00000000
Si       2.51774984      -2.71984847       0.04129457       0.00000000
Si       2.63192645       0.00692325       2.68410332       0.00000000
Si       2.68387526       2.66074346      -0.01415289       0.00000000
Si       3.50691123      -0.93356362      -1.11185792       0.00000000
Si      -0.09865224       2.72300384       2.67829746       0.00000000
Si      -2.72348603      -2.68131122      -0.02589299       0.00000000
