10
Lattice="16.290000149 0.0 0.0 0.0 16.290000149 0.0 0.0 0.0 29.1751946751" Properties=species:S:1:pos:R:3:initial_magmoms:R:1 pbc="T T T"
Si      -1.37836207      -1.31846374       1.36353190       0.00000000
Si      -1.37300266       1.35099487      -1.34707709       0.00000000
Si       1.29034720      -1.36831114      -1.41219612       0.00000000
Si       1.41216382       1.32468652       1.35448759       0.00000000
Si       0.04290786      -2.68928354       2.61762764       0.00000000
Si       0.04668714       2.69239493       2.70372364       0.00000000
Si      -0.00952965       2.70288569      -2.69532118       0.00000000
Si       2.67903713      -0.00798210      -2.72502153       0.00000000
Si       2.61040736      -2.80841232      -0.13560630       0.00000000
Si      -2.73311994      -2.70097976       0.01248698       0.00000000
