10
Lattice="16.290000149 0.0 0.0 0.0 16.290000149 0.0 0.0 0.0 29.1751946751" Properties=species:S:1:pos:R:3:initial_magmoms:R:1 pbc="T T T"
Si       1.34627077       1.33045644      -1.34612014       0.00000000
Si      -1.35560494       1.39535580       1.28933938       0.00000000
Si       1.37075464      -1.36053755       1.31323386       0.00000000
Si      -1.30161988      -1.32680096      -1.42554377       0.00000000
Si      -2.67969851       0.01156753       2.65114994       0.00000000
Si      -0.01619226      -2.71993807       2.61751094       0.00000000
Si       0.03719007       2.73871066       2.61847372       0.00000000
Si       2.72658764       0.01118634       2.65100406       0.00000000
Si      -2.58008516       0.04570322      -2.81386000       0.00000000
Si      -2.64987478       2.74797967      -0.14255000       0.00000000
