10
Lattice="16.290000149 0.0 0.0 0.0 16.290000149 0.0 0.0 0.0 29.1751946751" Properties=species:S:1:pos:R:3:initial_magmoms:R:1 pbc="T T T"
Si       1.34589024       1.21351297       1.48291679       0.00000000
Si       1.16986375      -1.59158270      -1.28758887       0.00000000
Si      -1.48007292      -1.30758284       1.37098033       0.00000000
Si      -0.28495706       1.82578240      -1.56904197       0.00000000
Si       2.48432667      -0.16226551      -2.63306132       0.00000000
Si       2.68218501       2.62022942       0.13068066       0.00000000
Si       0.63842205       1.01110646      -3.56789291       0.00000000
Si      -0.08589202       2.52089300       2.83519874       0.00000000
Si       2.52638745      -2.83226169       0.17266639       0.00000000
Si       2.62435551      -0.15899122       2.87123302       0.00000000
