10
Lattice="16.290000149 0.0 0.0 0.0 16.290000149 0.0 0.0 0.0 29.1751946751" Properties=species:S:1:pos:R:3:initial_magmoms:R:1 pbc="T T T"
Si       0.48075048       2.20739276      -0.60535611       0.00000000
Si       1.06235236       0.08527815       2.10636153       0.00000000
Si      -0.43017003      -1.81491779      -1.48428803       0.00000000
Si      -2.31393588       0.17891307       0.59286913       0.00000000
H        2.73914724       1.00159066      -0.77544750       0.00000000
H       -0.09029547      -2.93360097       1.03968724       0.00000000
H        1.84453301       2.78796837      -0.33391010       0.00000000
Si      -1.28648647      -3.29672136       0.14797659       0.00000000
Si      -2.08831612       2.02714391       2.03485313       0.00000000
Si      -1.99402634      -0.73977778      -2.84878271       0.00000000
