10
Lattice="16.290000149 0.0 0.0 0.0 16.290000149 0.0 0.0 0.0 29.1751946751" Properties=species:S:1:pos:R:3:initial_magmoms:R:1 pbc="T T T"
Si      -1.33682257      -1.44785521       1.25651728       0.00000000
Si       1.34340373      -1.36461331      -1.35168677       0.00000000
Si      -1.38741931       1.34231230      -1.34757307       0.00000000
Si       1.25796268       1.36845775       1.45546294       0.00000000
Si      -2.69770547      -0.07806168       2.51919053       0.00000000
Si       2.63647136       2.69503391       0.06590676       0.00000000
Si      -0.02793735       2.70622514      -2.68948615       0.00000000
Si       2.69122706      -0.01099575      -2.70877095       0.00000000
Si       2.68698665      -2.72029970       0.01814697       0.00000000
Si      -0.02757897      -2.71316468      -2.70643693       0.00000000
