10
Lattice="16.290000149 0.0 0.0 0.0 16.290000149 0.0 0.0 0.0 29.1751946751" Properties=species:S:1:pos:R:3:initial_magmoms:R:1 pbc="T T T"
Si      -1.37089637      -1.37171249      -1.33041805       0.00000000
Si       1.34669920       1.35435387      -1.37636898       0.00000000
Si       1.40705365      -1.33973522       1.33111826       0.00000000
Si      -1.39673231       1.33922046       1.34640606       0.00000000
Si      -0.01334151       2.69974498       2.67717421       0.00000000
Si       0.06894254      -2.68115158       2.70874177       0.00000000
Si      -2.70343467      -0.00566403      -2.70243993       0.00000000
Si      -2.70048618       2.71973281      -0.02841664       0.00000000
Si      -0.00159316      -2.71193968      -2.71052146       0.00000000
Si       2.70362363       2.72163874      -0.03935734       0.00000000
