10
Lattice="16.290000149 0.0 0.0 0.0 16.290000149 0.0 0.0 0.0 29.1751946751" Properties=species:S:1:pos:R:3:initial_magmoms:R:1 pbc="T T T"
Si       2.07422201      -0.71845091       0.84450519       0.00000000
Si       0.74769472       0.61051011      -2.16138595       0.00000000
Si      -1.28046569      -2.00338331      -0.08682538       0.00000000
Si      -0.59763124       1.52418364       1.75993527       0.00000000
H        0.68336551       1.56230224       2.58180050       0.00000000
H        0.15045444       1.90792717      -2.64726964       0.00000000
Si      -0.07441272       3.51413748       0.06112203       0.00000000
H       -1.96269904      -0.79797869      -2.88881108       0.00000000
Si       1.30407967      -2.21516961       2.56353683       0.00000000
Si       3.12803841      -1.38535700      -1.22693364       0.00000000
