10
Lattice="10.86 0.0 0.0 0.0 10.86 0.0 0.0 0.0 10.86" Properties=species:S:1:pos:R:3:initial_magmoms:R:1 pbc="T T T"
Si       0.68914302      -0.99712176      -1.97358780       0.00000000
Si      -2.02585698      -0.99712176       0.74141220       0.00000000
Si       1.82631534       0.18440280       1.98756462       0.00000000
Si       2.04664302      -2.35462176      -0.61608780       0.00000000
Si      -0.66835698      -2.35462176       2.09891220       0.00000000
Si      -2.02585698       1.71787824      -1.97358780       0.00000000
Si       3.40414302      -0.99712176       0.74141220       0.00000000
Si       0.68914302      -0.99712176       3.45641220       0.00000000
Si      -0.46859814       2.94536232       2.24899740       0.00000000
Si       1.99928256       0.33538938      -3.14134188       0.00000000
