10
Lattice="10.86 0.0 0.0 0.0 10.86 0.0 0.0 0.0 10.86" Properties=species:S:1:pos:R:3:initial_magmoms:R:1 pbc="T T T"
Si       1.35750000       1.35750000       1.35750000       0.00000000
Si      -1.35750000       1.35750000      -1.35750000       0.00000000
Si      -1.35750000      -1.35750000       1.35750000       0.00000000
Si       1.35750000      -1.35750000      -1.35750000       0.00000000
Si      -2.04664302       2.35462176       0.61608780       0.00000000
Si      -0.22707174      -2.56941084      -2.53999110       0.00000000
Si      -0.22032768       2.53902456       2.60365242       0.00000000
Si      -0.04736046       2.69001114      -2.52525408       0.00000000
Si      -2.73031260      -2.62677336       0.19296048       0.00000000
Si       2.71500000       0.00000000       2.71500000       0.00000000
