10
Lattice="10.86 0.0 0.0 0.0 10.86 0.0 0.0 0.0 10.86" Properties=species:S:1:pos:R:3:initial_magmoms:R:1 pbc="T T T"
Si       1.21385478       1.35791268       1.30229862       0.00000000
Si       1.21385478      -1.35708732      -1.41270138       0.00000000
Si      -1.50114522      -1.35708732       1.30229862       0.00000000
Si      -1.47045486       1.57088814      -1.36348386       0.00000000
Si       2.57135478       0.00041268       2.65979862       0.00000000
Si       2.57135478      -2.71458732      -0.05520138       0.00000000
Si       2.57135478       2.71541268      -0.05520138       0.00000000
Si      -0.13030914       2.57847894       2.71258908       0.00000000
Si       2.57135478       0.00041268      -2.77020138       0.00000000
Si      -0.14364522      -2.71458732       2.65979862       0.00000000
