10
Lattice="10.86 0.0 0.0 0.0 10.86 0.0 0.0 0.0 10.86" Properties=species:S:1:pos:R:3:initial_magmoms:R:1 pbc="T T T"
Si       1.35750000       1.35750000       1.35750000       0.00000000
Si      -1.35750000      -1.35750000       1.35750000       0.00000000
Si      -1.35750000       1.35750000      -1.35750000       0.00000000
Si       1.35750000      -1.35750000      -1.35750000       0.00000000
Si      -2.51524116      -0.13001592      -2.56491480       0.00000000
Si      -2.71193748       0.02295804       2.50289334       0.00000000
Si       2.77764048       0.13961616       2.60638914       0.00000000
Si       2.72833608      -0.13693374      -2.66220954       0.00000000
Si       0.15763290       2.67278718      -2.74104228       0.00000000
Si       2.71500000      -2.71500000       0.00000000       0.00000000
