10
Lattice="10.86 0.0 0.0 0.0 10.86 0.0 0.0 0.0 10.86" Properties=species:S:1:pos:R:3:initial_magmoms:R:1 pbc="T T T"
Si       1.37281260       1.26927336       1.16453952       0.00000000
Si      -1.34218740      -1.44572664       1.16453952       0.00000000
Si      -1.34218740       1.26927336      -1.55046048       0.00000000
Si       1.53745020      -1.78726278      -1.23403266       0.00000000
Si       0.01531260       2.62677336       2.52203952       0.00000000
Si      -2.69968740      -0.08822664       2.52203952       0.00000000
Si       2.50324086       0.05736252      -2.73295158       0.00000000
Si      -2.69968740       2.62677336      -0.19296048       0.00000000
Si       2.73031260       2.62677336      -0.19296048       0.00000000
Si       2.88794550      -0.13043946       2.49599724       0.00000000
