10
Lattice="10.86 0.0 0.0 0.0 10.86 0.0 0.0 0.0 10.86" Properties=species:S:1:pos:R:3:initial_magmoms:R:1 pbc="T T T"
Si      -1.37083608      -1.22056626       1.30470954       0.00000000
Si       1.34416392      -1.22056626      -1.41029046       0.00000000
Si       1.34416392       1.49443374       1.30470954       0.00000000
Si      -0.01333608      -2.57806626       2.66220954       0.00000000
Si       2.70166392      -2.57806626      -0.05279046       0.00000000
Si       0.13030914      -2.57847894      -2.71258908       0.00000000
Si       2.70166392       0.13693374       2.66220954       0.00000000
Si      -2.57070318       2.80972092      -0.07883274       0.00000000
Si      -2.72833608       0.13693374       2.66220954       0.00000000
Si       2.70166392       0.13693374      -2.76779046       0.00000000
