10
Lattice="16.290000149 0.0 0.0 0.0 16.290000149 0.0 0.0 0.0 29.1751946751" Properties=species:S:1:pos:R:3:initial_magmoms:R:1 pbc="T T T"
Si       1.61616349      -0.17997192      -1.67655256       0.00000000
Si      -0.42935553       2.29117060      -0.29633245       0.00000000
Si       0.25256016      -0.51821748       2.29974581       0.00000000
Si      -1.89104096      -1.31427721      -0.63193472       0.00000000
H        1.33421617      -2.22876524       1.50185150       0.00000000
H       -2.79081912      -0.50948604      -1.55448355       0.00000000
Si      -1.49038840       1.02431521       2.75707340       0.00000000
Si       0.05361039      -0.96441688      -3.26709665       0.00000000
Si      -2.32226984       2.27104431       1.04511382       0.00000000
Si      -0.84095497      -2.80639236      -2.08716425       0.00000000
