10
Lattice="16.290000149 0.0 0.0 0.0 16.290000149 0.0 0.0 0.0 29.1751946751" Properties=species:S:1:pos:R:3:initial_magmoms:R:1 pbc="T T T"
Si      -2.30725046      -0.08828691       0.36101386       0.00000000
H       -0.90683173       1.56633238      -1.48968544       0.00000000
Si       0.97326235      -0.40269532      -2.15295432       0.00000000
Si       1.02605824       2.14925375       0.39121019       0.00000000
Si       0.05874174      -2.06710328       1.28718041       0.00000000
H       -2.92312650       1.21683043      -0.07801447       0.00000000
Si       2.84460870       1.26172567       1.54117966       0.00000000
Si       2.89486335      -1.45988375      -1.37931568       0.00000000
Si       3.53916543      -0.78292021       0.76584886       0.00000000
Si      -3.15286437      -1.75211984      -1.03294777       0.00000000
