10
Lattice="16.290000149 0.0 0.0 0.0 16.290000149 0.0 0.0 0.0 29.1751946751" Properties=species:S:1:pos:R:3:initial_magmoms:R:1 pbc="T T T"
Si       1.35526285       1.36850662       1.33709917       0.00000000
Si      -1.32854888       1.36068742      -1.37368487       0.00000000
Si       1.38409615      -1.35498429      -1.33447340       0.00000000
Si      -1.34716021      -1.35338787       1.37633981       0.00000000
Si       2.71039538       0.00190593       2.67352731       0.00000000
Si      -2.69851997      -0.00803097      -2.69890973       0.00000000
Si       0.05877432      -2.69138495       2.70920858       0.00000000
Si       0.02761155      -2.71824716      -2.68429296       0.00000000
Si      -2.69353523       2.71243163      -0.02409871       0.00000000
Si      -0.02205666       2.71422353       2.69520448       0.00000000
