10
Lattice="16.290000149 0.0 0.0 0.0 16.290000149 0.0 0.0 0.0 29.1751946751" Properties=species:S:1:pos:R:3:initial_magmoms:R:1 pbc="T T T"
Si       1.38205990      -1.34462548      -1.33622392       0.00000000
Si      -1.29733561       1.30209229      -1.46132715       0.00000000
Si       1.38839671       1.35874891       1.33068063       0.00000000
Si      -1.35013150      -1.39101940       1.34392617       0.00000000
Si      -2.78023062       0.05372442       2.46294076       0.00000000
Si      -2.65891898       2.67270032      -0.20008349       0.00000000
Si       2.71156826      -0.01441665       2.66562084       0.00000000
Si       0.01669725      -2.68452686      -2.70836250       0.00000000
Si      -2.70995555      -2.69946479      -0.04536743       0.00000000
Si       2.72653877       0.02676447      -2.69870551       0.00000000
