10
Lattice="16.290000149 0.0 0.0 0.0 16.290000149 0.0 0.0 0.0 29.1751946751" Properties=species:S:1:pos:R:3:initial_magmoms:R:1 pbc="T T T"
Si      -1.42974073       1.31810536      -1.28843495       0.00000000
Si      -1.37901367      -1.31996242       1.36087696       0.00000000
Si       1.33955929       1.40370931       1.33479433       0.00000000
Si       1.34503273      -1.28159947      -1.45820541       0.00000000
Si      -0.07441272       2.66031992      -2.60302837       0.00000000
Si       2.69013062      -2.61794963      -0.04169135       0.00000000
Si      -0.01953171      -2.68938128       2.69692582       0.00000000
Si      -2.75120184      -2.64621278      -0.00481391       0.00000000
Si       2.70342326       0.06382422       2.69730510       0.00000000
Si      -2.74567953       0.06063138       2.68298008       0.00000000
