10
Lattice="16.290000149 0.0 0.0 0.0 16.290000149 0.0 0.0 0.0 29.1751946751" Properties=species:S:1:pos:R:3:initial_magmoms:R:1 pbc="T T T"
Si      -2.19773279       0.72107686       0.45545396       0.00000000
Si      -0.27693000      -2.03067884       1.18888918       0.00000000
Si       1.57278322       1.30756573       1.21453418       0.00000000
Si      -0.28673658       0.88251076      -2.24094670       0.00000000
H        2.24746616      -0.95936698      -1.62841349       0.00000000
H        0.80436763      -1.86769739      -2.17877436       0.00000000
H        1.61512093      -2.61400745      -0.53469379       0.00000000
H        1.03519693      -2.50302368       1.77962852       0.00000000
Si      -2.15099678       2.87068247      -0.51532146       0.00000000
Si      -0.40285170       3.18755555      -2.00594051       0.00000000
