10
Lattice="16.290000149 0.0 0.0 0.0 16.290000149 0.0 0.0 0.0 29.1751946751" Properties=species:S:1:pos:R:3:initial_magmoms:R:1 pbc="T T T"
Si       1.36386397      -1.33988509       1.36251077       0.00000000
Si       1.35547462       1.37375200      -1.34316761       0.00000000
Si      -1.35451351       1.35343837       1.36472808       0.00000000
Si      -1.33955929      -1.40370931      -1.33479433       0.00000000
Si       2.70751205      -2.67142970      -0.02363191       0.00000000
Si      -2.76930003      -0.08560395      -2.62322928       0.00000000
Si       0.01187541      -2.73145835       2.68890264       0.00000000
Si      -2.72308529       2.70049106       0.02167717       0.00000000
Si       0.01049076       2.71461449      -2.71352651       0.00000000
Si       2.71402805       2.72041373       0.02307758       0.00000000
