10
Lattice="16.290000149 0.0 0.0 0.0 16.290000149 0.0 0.0 0.0 29.1751946751" Properties=species:S:1:pos:R:3:initial_magmoms:R:1 pbc="T T T"
H        1.29080332       0.67795723       0.85550423       0.00000000
Si       1.25253811      -1.84218725      -0.65171550       0.00000000
Si      -1.02232783       1.33384150      -1.61172528       0.00000000
Si      -1.77078818      -0.58744999       1.45146594       0.00000000
H        0.97766065       1.25261956      -2.70681621       0.00000000
Si      -2.08733546       2.44701866       0.25379502       0.00000000
Si      -1.77956849      -0.70822405      -2.62133289       0.00000000
Si       2.41592105       1.03149910       2.04812784       0.00000000
Si      -0.27906399      -2.56767869      -2.26711685       0.00000000
Si      -2.84324034      -2.34913205       0.38502504       0.00000000
