10
Lattice="16.290000149 0.0 0.0 0.0 16.290000149 0.0 0.0 0.0 29.1751946751" Properties=species:S:1:pos:R:3:initial_magmoms:R:1 pbc="T T T"
Si      -1.39470094       1.28404297      -1.35845541       0.00000000
Si       1.43972650      -1.36959805      -1.23154332       0.00000000
Si      -1.37269315      -1.31901760       1.35927232       0.00000000
Si       0.87674410       1.89205094       1.06273564       0.00000000
Si      -2.43532244       0.14623533       2.83486614       0.00000000
Si       0.05750370      -2.71997390      -2.57182259       0.00000000
Si      -2.57645900       2.73618245       0.05420751       0.00000000
Si      -0.00967626       2.61951347      -2.69806365       0.00000000
Si       2.78239719      -0.03645702      -2.60251489       0.00000000
Si      -2.74470213      -0.05952366      -2.66979289       0.00000000
