10
Lattice="16.290000149 0.0 0.0 0.0 16.290000149 0.0 0.0 0.0 29.1751946751" Properties=species:S:1:pos:R:3:initial_magmoms:R:1 pbc="T T T"
Si       1.21334437      -1.41459103       1.45001184       0.00000000
Si      -1.48867795      -1.25069734      -1.37152590       0.00000000
Si      -1.48111939       1.29840375       1.33876216       0.00000000
Si       1.62002422       1.48388544      -0.94148353       0.00000000
Si       2.55490733      -2.77004937       0.10666451       0.00000000
Si       0.88928740       3.67417695      -0.53974110       0.00000000
Si      -2.80262937      -2.61882929       0.11016554       0.00000000
Si      -0.18572229       2.58408272       2.84467776       0.00000000
H        1.08742267      -1.09126711      -3.53089876       0.00000000
H        3.04833144      -0.74127646      -2.25451317       0.00000000
