10
Lattice="16.290000149 0.0 0.0 0.0 16.290000149 0.0 0.0 0.0 29.1751946751" Properties=species:S:1:pos:R:3:initial_magmoms:R:1 pbc="T T T"
Si       1.41426523       1.38917863      -1.25337803       0.00000000
Si       1.36762696      -1.34646625       1.37062147       0.00000000
Si      -1.27933060       1.34866540       1.45633819       0.00000000
Si      -1.38751705      -1.29033091      -1.43811537       0.00000000
Si      -2.69255783      -2.63292014       0.00516401       0.00000000
Si      -2.59664231       2.78144911       0.17910652       0.00000000
Si       0.13379629       2.75830428      -2.63978620       0.00000000
Si       2.74375731       0.07889247      -2.67697290       0.00000000
Si       0.02088378      -2.69270444       2.73963831       0.00000000
Si       2.72109791      -2.71544528       0.01280791       0.00000000
