10
Lattice="16.290000149 0.0 0.0 0.0 16.290000149 0.0 0.0 0.0 29.1751946751" Properties=species:S:1:pos:R:3:initial_magmoms:R:1 pbc="T T T"
Si      -1.31212693       0.47234484      -0.59073934       0.00000000
H        0.57992401      -0.11098377      -2.31432232       0.00000000
Si       1.76023226      -0.62491699      -1.50987467       0.00000000
Si       1.06153786      -2.48197700      -0.08656280       0.00000000
Si      -2.55016694       0.71851933       1.35997252       0.00000000
Si      -2.28398834      -1.52392951      -1.46637446       0.00000000
Si       0.44492877      -2.15961419       2.25060369       0.00000000
Si      -1.33315732      -0.60263227       2.88283016       0.00000000
Si      -1.03519693       2.50302368      -1.77962852       0.00000000
Si       3.05733981       1.04892940      -0.33720690       0.00000000
