10
Lattice="16.290000149 0.0 0.0 0.0 16.290000149 0.0 0.0 0.0 29.1751946751" Properties=species:S:1:pos:R:3:initial_magmoms:R:1 pbc="T T T"
Si      -2.07145271       0.71756636      -0.84867724       0.00000000
Si      -0.78188743      -1.49819620       1.71182537       0.00000000
Si       0.91562833       2.08311146       0.81220824       0.00000000
Si       1.04659993      -0.67050129      -2.07491067       0.00000000
H       -1.39209454       2.28082319       1.71573485       0.00000000
Si      -1.31939227       1.30831507      -3.00107723       0.00000000
Si      -2.67985163       2.22478559       0.90694010       0.00000000
H        0.43391673      -3.56989326      -0.53565657       0.00000000
Si      -2.31166505      -2.81494949       0.51692610       0.00000000
Si      -3.35319553      -1.27200955      -0.96146854       0.00000000
