10
Lattice="16.290000149 0.0 0.0 0.0 16.290000149 0.0 0.0 0.0 29.1751946751" Properties=species:S:1:pos:R:3:initial_magmoms:R:1 pbc="T T T"
Si      -1.14979708      -0.13167207       2.05953534       0.00000000
Si      -1.52449966       1.00313821      -1.50316438       0.00000000
Si       0.99525385      -1.75852181      -1.27527693       0.00000000
Si       1.53497413       1.84077002       0.42333207       0.00000000
H       -2.06208596      -2.80745121      -0.93807003       0.00000000
Si       2.30472551      -0.46247310      -2.76324104       0.00000000
Si      -2.55500507       2.62360064      -0.18184899       0.00000000
H        0.78107293      -3.01681029       1.99747970       0.00000000
Si      -0.23221395       2.44262509      -2.78153389       0.00000000
Si       0.41275602       0.65277289       3.65007943       0.00000000
