10
Lattice="16.290000149 0.0 0.0 0.0 16.290000149 0.0 0.0 0.0 29.1751946751" Properties=species:S:1:pos:R:3:initial_magmoms:R:1 pbc="T T T"
Si      -0.55878936      -0.83039905      -2.10784946       0.00000000
Si      -0.74959087      -1.69652207       1.52402464       0.00000000
Si       2.00754704       1.09797859       0.73291007       0.00000000
Si      -1.30345251       2.01326483      -0.14608020       0.00000000
H        1.39118230       1.67910806      -2.37299363       0.00000000
H        2.79671610      -0.35411202      -1.93069768       0.00000000
Si      -1.97742683      -0.24014718       2.85293930       0.00000000
Si       0.19583838       1.32310639      -3.26817613       0.00000000
Si       0.97959916       2.34287669       2.56225312       0.00000000
H        1.49682295      -3.02676348      -1.50444809       0.00000000
