10
Lattice="16.290000149 0.0 0.0 0.0 16.290000149 0.0 0.0 0.0 29.1751946751" Properties=species:S:1:pos:R:3:initial_magmoms:R:1 pbc="T T T"
Si       1.41806080      -1.34494053       1.25089814       0.00000000
Si      -1.49814244       1.23791947       1.27755260       0.00000000
Si      -1.04130568      -1.85128358      -0.95486911       0.00000000
Si       0.86488498       1.72924216      -1.38056409       0.00000000
H       -2.05526045       0.78258138      -2.05680454       0.00000000
Si      -1.87318712      -0.60455449      -2.66682869       0.00000000
Si      -0.07908795       2.66634071       2.51451083       0.00000000
Si       2.64637568      -2.54986395      -0.34649336       0.00000000
Si      -0.04443912      -2.77748412       2.46756795       0.00000000
Si      -0.83750149       3.40098714      -1.25712413       0.00000000
