10
Lattice="16.290000149 0.0 0.0 0.0 16.290000149 0.0 0.0 0.0 29.1751946751" Properties=species:S:1:pos:R:3:initial_magmoms:R:1 pbc="T T T"
Si       1.24072786      -1.38764737       1.37310136       0.00000000
Si      -1.35936793       1.34724817       1.33441505       0.00000000
Si      -1.29427309      -1.43741332      -1.31122077       0.00000000
Si       1.45668439       1.29800350      -1.30232234       0.00000000
Si       2.68118741      -0.05965398       2.58460132       0.00000000
Si      -2.64940562      -0.07081263      -2.64764892       0.00000000
Si       0.09262494       2.62397693      -2.68111286       0.00000000
Si       0.02648754       2.69895980       2.62877257       0.00000000
Si      -2.60236010      -2.78388446       0.11212027       0.00000000
Si       0.13108563      -2.79957173      -2.60942941       0.00000000
