10
Lattice="16.290000149 0.0 0.0 0.0 16.290000149 0.0 0.0 0.0 29.1751946751" Properties=species:S:1:pos:R:3:initial_magmoms:R:1 pbc="T T T"
Si       1.26374563      -1.63994689       1.14789803       0.00000000
Si       1.30947166       1.29604870      -1.48796410       0.00000000
Si      -0.99525385       1.75852181       1.27527693       0.00000000
Si      -1.29710755      -1.67384639      -1.17266777       0.00000000
H        0.23850189      -2.75250504       1.36227737       0.00000000
H       -3.05733981      -1.04892940       0.33720690       0.00000000
H       -2.47741580      -1.15991317      -1.97711542       0.00000000
H       -0.21418092      -1.25828848       3.27275664       0.00000000
H       -1.84507058       0.49472730      -3.07083512       0.00000000
Si      -2.51975351       2.76166002      -0.22788745       0.00000000
