10
Lattice="16.290000149 0.0 0.0 0.0 16.290000149 0.0 0.0 0.0 29.1751946751" Properties=species:S:1:pos:R:3:initial_magmoms:R:1 pbc="T T T"
Si       1.21949629      -1.28623235      -1.60431478       0.00000000
Si      -1.28777745       1.34768800      -1.50293098       0.00000000
Si       1.31783088       1.70655671       1.12467458       0.00000000
Si      -1.43650516      -1.42145075       1.35282460       0.00000000
H        2.83051377       0.23211621       0.50761921       0.00000000
H        0.18359563       2.67942809       1.39830873       0.00000000
H       -0.95220345       0.86467321       3.37781651       0.00000000
Si      -2.62543082      -2.56822783      -0.34219586       0.00000000
Si       3.44638981      -1.07300113       0.94664754       0.00000000
Si       2.60077590      -2.73683406      -0.44731408       0.00000000
