10
Lattice="16.290000149 0.0 0.0 0.0 16.290000149 0.0 0.0 0.0 29.1751946751" Properties=species:S:1:pos:R:3:initial_magmoms:R:1 pbc="T T T"
Si       1.35755811      -1.23740470       1.46085072       0.00000000
Si      -1.16833868       1.59179919       1.28872670       0.00000000
Si       1.32139431       1.42780222      -1.34162133       0.00000000
Si      -1.46048159      -1.38142459      -1.35542119       0.00000000
Si      -0.51876972       2.59678567      -2.27910786       0.00000000
Si       2.80274177      -2.42805710       0.10196731       0.00000000
Si      -1.45833131       3.40736304      -0.28542093       0.00000000
Si       0.01228918      -2.58160664      -2.69718840       0.00000000
Si      -2.64818550       0.28471662       2.65722130       0.00000000
Si       0.01609778      -2.70997184       2.68876260       0.00000000
