10
Lattice="16.290000149 0.0 0.0 0.0 16.290000149 0.0 0.0 0.0 29.1751946751" Properties=species:S:1:pos:R:3:initial_magmoms:R:1 pbc="T T T"
Si       1.33644627       1.34978941      -1.37111745       0.00000000
Si      -1.37903765       1.39590771       1.29809194       0.00000000
Si       1.34825652      -1.35220033       1.38564670       0.00000000
Si      -1.37902115      -1.35944938      -1.35781356       0.00000000
Si      -0.11487708      -2.73481409       2.60286499       0.00000000
Si      -2.68996935       0.06043590       2.66632104       0.00000000
Si       2.68535603      -2.68280012      -0.02398201       0.00000000
Si       2.67998033       2.69660916       0.01654234       0.00000000
Si      -0.06948825       2.68778649      -2.70398622       0.00000000
Si       2.68810904      -0.01132155      -2.73208193       0.00000000
