10
Lattice="16.290000149 0.0 0.0 0.0 16.290000149 0.0 0.0 0.0 29.1751946751" Properties=species:S:1:pos:R:3:initial_magmoms:R:1 pbc="T T T"
Si      -1.18892566      -1.14677708      -1.69502046       0.00000000
Si       0.57826243      -1.74863215       1.50984550       0.00000000
Si      -1.99658387       0.88681295       0.97147563       0.00000000
Si       1.43650516       1.42145075      -1.35282460       0.00000000
H        0.48430170       2.28612396       2.02499191       0.00000000
Si      -2.48121137      -2.58626395      -0.41665096       0.00000000
Si      -2.73613359       2.21029401      -0.82090245       0.00000000
Si      -2.62438418       0.47783620      -2.62591340       0.00000000
Si      -3.51171678      -0.96580153       0.90466444       0.00000000
H       -0.74803681       0.10137593       3.73226595       0.00000000
