10
Lattice="16.290000149 0.0 0.0 0.0 16.290000149 0.0 0.0 0.0 29.1751946751" Properties=species:S:1:pos:R:3:initial_magmoms:R:1 pbc="T T T"
Si      -1.36019872       1.35259129       1.35168677       0.00000000
Si      -1.36000324      -1.34328970      -1.36344437       0.00000000
Si       1.32424669      -1.36329382       1.39296967       0.00000000
Si       1.35581671       1.37697742      -1.35568377       0.00000000
Si       2.69498504      -2.70286126       0.02783314       0.00000000
Si       2.69741225       0.02042766       2.70226488       0.00000000
Si       0.01358586       2.71655300       2.68350523       0.00000000
Si       0.00244350      -2.70590586      -2.70882930       0.00000000
Si      -2.72435591      -2.69103472      -0.01391657       0.00000000
Si      -2.71586882       2.70343955      -0.01630893       0.00000000
