10
Lattice="16.290000149 0.0 0.0 0.0 16.290000149 0.0 0.0 0.0 29.1751946751" Properties=species:S:1:pos:R:3:initial_magmoms:R:1 pbc="T T T"
Si       2.23443416      -0.50207409       0.30814841       0.00000000
Si      -1.04659993       0.67050129       2.07491067       0.00000000
Si      -0.05874174       2.06710328      -1.28718041       0.00000000
Si      -0.64713655      -1.77451859      -1.58570101       0.00000000
Si      -2.36599220       1.97881637      -0.92616655       0.00000000
H       -0.61268320      -2.89939197       1.53925410       0.00000000
Si       2.78938560      -1.54238608      -1.69572066       0.00000000
Si      -3.11805264       1.38806765       1.22623343       0.00000000
Si       3.48042369       1.28418307      -0.52133155       0.00000000
Si       1.17252163      -3.23674158      -1.74639798       0.00000000
