10
Lattice="16.290000149 0.0 0.0 0.0 16.290000149 0.0 0.0 0.0 29.1751946751" Properties=species:S:1:pos:R:3:initial_magmoms:R:1 pbc="T T T"
Si       1.35927019       1.36480879      -1.34089195       0.00000000
Si      -1.35237952       1.38536677       1.33648649       0.00000000
Si       1.38811978      -1.34245891       1.34602678       0.00000000
Si      -1.35790183      -1.36277254      -1.35737593       0.00000000
Si      -2.70713738       0.03044601       2.67020134       0.00000000
Si       0.05079222      -2.79031413       2.60143541       0.00000000
Si       2.71063973       0.00420282      -2.69902643       0.00000000
Si      -0.00027693       2.71591118      -2.69558376       0.00000000
Si       2.69226461       2.71895578       0.04107867       0.00000000
Si      -2.72647361      -0.01571985      -2.70042684       0.00000000
