10
Lattice="16.290000149 0.0 0.0 0.0 16.290000149 0.0 0.0 0.0 29.1751946751" Properties=species:S:1:pos:R:3:initial_magmoms:R:1 pbc="T T T"
Si       1.36792018       1.35097858      -1.34867005       0.00000000
Si      -1.34337115      -1.37046142      -1.36432838       0.00000000
Si       1.35078310      -1.31711167       1.41038726       0.00000000
Si      -1.35922132       1.37435473       1.35235780       0.00000000
Si       2.67224420       2.64720647       0.12676622       0.00000000
Si      -2.69633711      -2.68278383       0.03918229       0.00000000
Si       0.08571798      -2.74734111      -2.65446716       0.00000000
Si      -0.00345348       2.76143196      -2.65333808       0.00000000
Si       2.76719862      -2.65017125       0.11232450       0.00000000
Si      -2.71652042       0.03139083       2.72668452       0.00000000
