10
Lattice="16.290000149 0.0 0.0 0.0 16.290000149 0.0 0.0 0.0 29.1751946751" Properties=species:S:1:pos:R:3:initial_magmoms:R:1 pbc="T T T"
Si       1.36047565       1.36311463      -1.34176720       0.00000000
Si      -1.36405945      -1.35558865      -1.34786482       0.00000000
Si       1.35249355      -1.37577196       1.34062937       0.00000000
Si      -1.37388232       1.36518346       1.33170176       0.00000000
Si       2.72714150      -0.01747917      -2.66387032       0.00000000
Si      -0.02120958       2.70049106      -2.69394995       0.00000000
Si       0.00531054      -2.71937117      -2.68350523       0.00000000
Si       2.72986193      -0.03546333       2.67262288       0.00000000
Si      -0.02472822       2.72720666       2.67877885       0.00000000
Si      -2.71208954      -2.70286940       0.03013798       0.00000000
