10
Lattice="16.290000149 0.0 0.0 0.0 16.290000149 0.0 0.0 0.0 29.1751946751" Properties=species:S:1:pos:R:3:initial_magmoms:R:1 pbc="T T T"
Si       1.29427309       1.43741332       1.31122077       0.00000000
Si      -1.35513253       1.36660069      -1.33642814       0.00000000
Si      -1.30808701      -1.34647114       1.42334105       0.00000000
Si       1.42535872      -1.36215841      -1.29820864       0.00000000
Si       2.53500095       0.04976595       2.68432214       0.00000000
Si      -2.65162106      -2.69329088       0.03568126       0.00000000
Si       0.06372648      -2.70495452      -2.67533618       0.00000000
Si      -2.71039538      -0.00190593      -2.67352731       0.00000000
Si       0.01997154       2.70264134      -2.69835541       0.00000000
Si       2.76047085       0.00156384      -2.66740052       0.00000000
