10
Lattice="16.290000149 0.0 0.0 0.0 16.290000149 0.0 0.0 0.0 29.1751946751" Properties=species:S:1:pos:R:3:initial_magmoms:R:1 pbc="T T T"
Si      -0.65332675       0.42383322      -2.12907734       0.00000000
Si      -1.90812917      -0.79224787       1.11988110       0.00000000
Si       0.83098549       1.93044647       1.06862028       0.00000000
Si       1.70238647      -1.67174498      -0.12343996       0.00000000
H       -1.21775896      -2.61840575      -0.79968042       0.00000000
Si       2.16950222       0.67065931       2.51722413       0.00000000
Si      -0.66064096      -2.16306767       2.53467673       0.00000000
Si       3.42770925      -0.72984088       1.15157119       0.00000000
Si       0.83750149      -3.40098714       1.25712413       0.00000000
Si      -2.35398647       2.02062791      -2.14623235       0.00000000
