10
Lattice="16.290000149 0.0 0.0 0.0 16.290000149 0.0 0.0 0.0 29.1751946751" Properties=species:S:1:pos:R:3:initial_magmoms:R:1 pbc="T T T"
Si       1.57809376      -1.08387145       1.32504982       0.00000000
Si      -1.23299011      -1.13577139      -1.62479577       0.00000000
Si      -1.60218667      -0.07043796       1.78730160       0.00000000
Si       1.29471292       1.59207058      -1.27460590       0.00000000
H        0.93201607      -1.91231570       2.39983481       0.00000000
H       -0.51108246      -2.82064611       1.84947394       0.00000000
Si      -1.71830180       2.23460683       2.02230779       0.00000000
Si      -2.64971513      -2.46138644      -0.38767999       0.00000000
Si       2.81432559      -2.44972280      -0.09403165       0.00000000
Si       0.12859326      -2.50637942      -2.88603943       0.00000000
