10
Lattice="16.290000149 0.0 0.0 0.0 16.290000149 0.0 0.0 0.0 29.1751946751" Properties=species:S:1:pos:R:3:initial_magmoms:R:1 pbc="T T T"
Si       1.77339458       1.00149292       1.15606709       0.00000000
Si       1.34061977      -1.30377016      -1.42132796       0.00000000
Si      -1.23447250       1.49147983      -1.35787191       0.00000000
Si      -1.30947166      -1.29604870       1.48796410       0.00000000
H       -3.15454224      -0.80132140      -1.58287101       0.00000000
Si      -2.30472551       0.46247310       2.76324104       0.00000000
Si      -2.50846454       0.02712285      -2.65765601       0.00000000
Si       3.42941970      -0.64891216       1.25304544       0.00000000
Si       2.75854863      -2.52615548      -0.04268331       0.00000000
Si       2.68926725       2.73649197      -0.12341107       0.00000000
