10
Lattice="16.290000149 0.0 0.0 0.0 16.290000149 0.0 0.0 0.0 29.1751946751" Properties=species:S:1:pos:R:3:initial_magmoms:R:1 pbc="T T T"
Si      -1.35948196       1.35799469       1.33914144       0.00000000
Si       1.34860024       1.37408921      -1.33645732       0.00000000
Si       1.38302101      -1.35860719       1.32186972       0.00000000
Si      -1.35584929      -1.37178580      -1.33782855       0.00000000
Si       2.67908600      -0.04434790      -2.62308340       0.00000000
Si       0.00579924      -2.71373972       2.65383406       0.00000000
Si      -2.72657136      -0.01135739      -2.65074149       0.00000000
Si       0.01339038       2.70582930       2.68195895       0.00000000
Si       2.73287559       0.01163432       2.67273958       0.00000000
Si      -2.70402599       0.00315700       2.70459890       0.00000000
