10
Lattice="16.290000149 0.0 0.0 0.0 16.290000149 0.0 0.0 0.0 29.1751946751" Properties=species:S:1:pos:R:3:initial_magmoms:R:1 pbc="T T T"
Si       1.81855046      -0.88752808       1.14996947       0.00000000
Si      -0.88052338       1.77904721       1.28047012       0.00000000
Si       1.12345615       1.44347320      -1.54847346       0.00000000
Si      -1.02605824      -2.14925375      -0.39121019       0.00000000
H       -1.93288997      -0.58292137      -1.88089563       0.00000000
Si       2.60954399       2.46140273      -0.08069859       0.00000000
Si      -0.05279589      -2.55194907      -2.54416450       0.00000000
Si      -1.96103909       0.61291126       2.98430149       0.00000000
Si       0.99012250       3.23854977       1.43320226       0.00000000
H        3.19468080      -0.63066736      -1.75821393       0.00000000
