10
Lattice="16.290000149 0.0 0.0 0.0 16.290000149 0.0 0.0 0.0 29.1751946751" Properties=species:S:1:pos:R:3:initial_magmoms:R:1 pbc="T T T"
Si       1.35948196      -1.35799469      -1.33914144       0.00000000
Si       1.37287234       1.34783461       1.34281751       0.00000000
Si      -1.34454403      -1.35483768       1.36545746       0.00000000
Si      -1.33011109       1.36989127      -1.37193435       0.00000000
Si       0.00172674       2.70469388       2.67510277       0.00000000
Si       2.70808220       0.01609452      -2.67559875       0.00000000
Si       0.04548168      -2.70290198       2.69812200       0.00000000
Si       0.00363267      -2.72978049      -2.67696999       0.00000000
Si      -2.68921838       2.72517041      -0.01782604       0.00000000
Si      -2.70102863      -2.71810055       0.01563790       0.00000000
