10
Lattice="16.290000149 0.0 0.0 0.0 16.290000149 0.0 0.0 0.0 29.1751946751" Properties=species:S:1:pos:R:3:initial_magmoms:R:1 pbc="T T T"
Si      -1.34402275      -1.32711373      -1.40662366       0.00000000
Si      -1.38390067       1.35156502       1.35419584       0.00000000
Si       1.35552349       1.34693866      -1.39308637       0.00000000
Si       1.39044404      -1.35628912       1.35063646       0.00000000
Si      -2.68416848      -2.67602348      -0.03474766       0.00000000
Si       2.66330425      -2.71770959      -0.07074985       0.00000000
Si      -2.71679735       2.66603771      -0.08793404       0.00000000
Si       0.02474451       2.71572221       2.67352731       0.00000000
Si       2.74785913       0.05729193       2.66066105       0.00000000
Si      -2.73753452      -0.03416013       2.70456972       0.00000000
