10
Lattice="16.290000149 0.0 0.0 0.0 16.290000149 0.0 0.0 0.0 29.1751946751" Properties=species:S:1:pos:R:3:initial_magmoms:R:1 pbc="T T T"
Si       1.35000118       1.34356663       1.31133748       0.00000000
Si      -1.31015584       1.42768819      -1.29596215       0.00000000
Si       1.43814637      -1.33447681      -1.28082022       0.00000000
Si      -1.37077093      -1.25320600       1.43317309       0.00000000
Si      -2.66035250       0.04074129      -2.61864877       0.00000000
Si       0.07121988      -2.69322572      -2.60928354       0.00000000
Si      -0.01384650      -2.61120557       2.73470770       0.00000000
Si      -2.68120370      -2.68354946       0.11074904       0.00000000
Si      -2.60788241       2.78609502       0.12166056       0.00000000
Si       0.06594192       2.75771784      -2.65056644       0.00000000
