10
Lattice="16.290000149 0.0 0.0 0.0 16.290000149 0.0 0.0 0.0 29.1751946751" Properties=species:S:1:pos:R:3:initial_magmoms:R:1 pbc="T T T"
Si       1.30222261       1.48807522      -1.26813951       0.00000000
Si       1.37635840      -1.34713414       1.36422335       0.00000000
Si      -1.37637469       1.37168317       1.35937735       0.00000000
Si      -1.17162568      -1.47010735      -1.45029893       0.00000000
Si       2.60947883       0.06209748      -2.56832156       0.00000000
Si      -2.49800799      -0.06545322      -2.78923614       0.00000000
Si      -2.64412115      -2.65566098       0.00428292       0.00000000
Si       0.02339244      -2.65945655       2.76773402       0.00000000
Si       2.71972955       0.02332728       2.72855173       0.00000000
Si      -0.01578501       2.74392021       2.72119958       0.00000000
