10
Lattice="16.290000149 0.0 0.0 0.0 16.290000149 0.0 0.0 0.0 29.1751946751" Properties=species:S:1:pos:R:3:initial_magmoms:R:1 pbc="T T T"
Si      -1.40330174       1.17983584      -1.45044480       0.00000000
Si      -1.46642549      -1.14440509       1.44236911       0.00000000
Si       1.48383852      -1.27189063      -1.36277334       0.00000000
Si       1.21870899       1.49724649       1.40896351       0.00000000
H       -2.30865108       1.93743488      -0.48617544       0.00000000
H       -0.85579483      -2.52630209      -1.88868540       0.00000000
Si       2.64986207       0.43940646      -2.52508392       0.00000000
Si      -0.07959261      -2.51486651       2.78270965       0.00000000
Si      -2.89642686      -2.47415780       0.12343646       0.00000000
Si       2.60547182       0.16524576       2.78584014       0.00000000
