10
Lattice="16.290000149 0.0 0.0 0.0 16.290000149 0.0 0.0 0.0 29.1751946751" Properties=species:S:1:pos:R:3:initial_magmoms:R:1 pbc="T T T"
Si       1.33908688      -1.35878149       1.36259829       0.00000000
Si      -1.35167905      -1.35304741      -1.36102283       0.00000000
Si       1.35900955       1.35151615      -1.36204396       0.00000000
Si      -1.32696712       1.34977312       1.39518698       0.00000000
Si       2.68928354       0.02816541       2.68528492       0.00000000
Si      -2.67012650       2.70728399       0.02654943       0.00000000
Si       0.03611004      -2.71489142      -2.68382616       0.00000000
Si      -2.68988627      -2.71000442       0.01954738       0.00000000
Si      -2.69750999       0.02777445      -2.71460599       0.00000000
Si       2.69899238       2.71511948       0.00224649       0.00000000
