10
Lattice="16.290000149 0.0 0.0 0.0 16.290000149 0.0 0.0 0.0 29.1751946751" Properties=species:S:1:pos:R:3:initial_magmoms:R:1 pbc="T T T"
Si      -1.34498386       1.34086249      -1.37035889       0.00000000
Si       1.35855343       1.34666173       1.36624519       0.00000000
Si       1.34381098      -1.30344436      -1.42182394       0.00000000
Si      -1.35547462      -1.37375200       1.34316761       0.00000000
Si       0.11751606       2.77340608      -2.58702870       0.00000000
Si      -2.76944664      -0.11714139      -2.59465509       0.00000000
Si      -2.69884577       2.67077810       0.03002128       0.00000000
Si       2.69306282      -2.69325830      -0.06611099       0.00000000
Si      -2.70998813      -0.02031363       2.70789569       0.00000000
Si       0.00838935      -2.71363709       2.70567838       0.00000000
