10
Lattice="16.290000149 0.0 0.0 0.0 16.290000149 0.0 0.0 0.0 29.1751946751" Properties=species:S:1:pos:R:3:initial_magmoms:R:1 pbc="T T T"
Si       1.35549091      -1.39528575      -1.28954360       0.00000000
Si       1.39246921       1.34395759       1.32840496       0.00000000
Si      -1.32447475      -1.38285811       1.36154799       0.00000000
Si      -1.29550299       1.35143470      -1.43089742       0.00000000
Si      -2.64531244       2.68051952      -0.02602427       0.00000000
Si       2.70125669      -0.06458985      -2.63602844       0.00000000
Si       0.03336192       2.69923673       2.68251327       0.00000000
Si      -2.70457985      -0.03381804       2.70136045       0.00000000
Si      -2.63886143      -2.76739410      -0.00131288       0.00000000
Si      -2.65772191      -0.04399929      -2.74965415       0.00000000
