10
Lattice="16.290000149 0.0 0.0 0.0 16.290000149 0.0 0.0 0.0 29.1751946751" Properties=species:S:1:pos:R:3:initial_magmoms:R:1 pbc="T T T"
Si      -1.38929266      -1.35962857       1.31230026       0.00000000
Si      -1.36961434       1.34097652      -1.35390408       0.00000000
Si       1.35218404      -1.37018449      -1.34984873       0.00000000
Si       1.37740096       1.36601425       1.33587381       0.00000000
Si       2.77374720      -0.08413785       2.52835155       0.00000000
Si       0.00760743       2.69610905      -2.68586842       0.00000000
Si      -0.06936282      -2.80033248       2.58751884       0.00000000
Si      -2.68941386       2.70980894       0.02952530       0.00000000
Si      -2.67923261       0.00873144       2.72458391       0.00000000
Si       2.72663651      -0.02720430      -2.69170346       0.00000000
