10
Lattice="16.290000149 0.0 0.0 0.0 16.290000149 0.0 0.0 0.0 29.1751946751" Properties=species:S:1:pos:R:3:initial_magmoms:R:1 pbc="T T T"
Si       1.32039411      -1.33692031      -1.40598181       0.00000000
Si       1.39093144       1.37627695       1.31133748       0.00000000
Si      -1.34012944       1.36549297      -1.37499775       0.00000000
Si      -1.35552349      -1.34693866       1.39308637       0.00000000
Si      -0.01062108       2.69570180       2.62684700       0.00000000
Si       2.64955223      -2.69596244      -0.04067022       0.00000000
Si      -2.69954624      -2.67405239      -0.01353729       0.00000000
Si      -2.72218934       2.71011845      -0.03877383       0.00000000
Si       2.67040343       0.02832831      -2.77006803       0.00000000
Si       0.03492055      -2.70322778       2.74372283       0.00000000
