10
Lattice="10.86 0.0 0.0 0.0 10.86 0.0 0.0 0.0 10.86" Properties=species:S:1:pos:R:3:initial_magmoms:R:1 pbc="T T T"
Si      -1.39996260       1.46793534       1.05184530       0.00000000
Si       1.35750000      -1.35750000       1.35750000       0.00000000
Si      -1.35750000      -1.35750000      -1.35750000       0.00000000
Si       1.38064266       1.53090162      -1.54053444       0.00000000
Si       0.00000000       2.71500000       2.71500000       0.00000000
Si       2.71500000      -2.71500000       0.00000000       0.00000000
Si      -2.71500000      -2.71500000       0.00000000       0.00000000
Si       0.00000000      -2.71500000      -2.71500000       0.00000000
Si      -2.71500000       0.00000000       2.71500000       0.00000000
Si       2.71500000       0.00000000      -2.71500000       0.00000000
