10
Lattice="10.86 0.0 0.0 0.0 10.86 0.0 0.0 0.0 10.86" Properties=species:S:1:pos:R:3:initial_magmoms:R:1 pbc="T T T"
Si       1.26793758       1.37759100       1.34943102       0.00000000
Si      -1.44706242      -1.33740900       1.34943102       0.00000000
Si      -1.44706242       1.37759100      -1.36556898       0.00000000
Si       2.62543758       0.02009100       2.70693102       0.00000000
Si       2.62543758       2.73509100      -0.00806898       0.00000000
Si      -0.08956242      -2.69490900       2.70693102       0.00000000
Si      -0.08956242       2.73509100       2.70693102       0.00000000
Si      -0.08956242       2.73509100      -2.72306898       0.00000000
Si      -2.80456242       0.02009100       2.70693102       0.00000000
Si      -2.80456242       2.73509100      -0.00806898       0.00000000
