10
Lattice="10.86 0.0 0.0 0.0 10.86 0.0 0.0 0.0 10.86" Properties=species:S:1:pos:R:3:initial_magmoms:R:1 pbc="T T T"
Si       1.51507860       1.17164196       1.33031742       0.00000000
Si      -1.19992140      -1.54335804       1.33031742       0.00000000
Si       1.51507860      -1.54335804      -1.38468258       0.00000000
Si      -1.02259932       1.44889776      -1.86808290       0.00000000
Si      -2.41779438       2.46727254      -0.12593256       0.00000000
Si      -2.40774888      -0.25014924      -2.67234192       0.00000000
Si       0.15757860       2.52914196       2.68781742       0.00000000
Si      -2.55742140      -0.18585804       2.68781742       0.00000000
Si      -2.55742140      -2.90085804      -0.02718258       0.00000000
Si       2.73755622       2.73227826      -0.15056304       0.00000000
