10
Lattice="10.86 0.0 0.0 0.0 10.86 0.0 0.0 0.0 10.86" Properties=species:S:1:pos:R:3:initial_magmoms:R:1 pbc="T T T"
Si       1.35750000       1.35750000       1.35750000       0.00000000
Si      -1.35750000      -1.35750000       1.35750000       0.00000000
Si       1.35750000      -1.35750000      -1.35750000       0.00000000
Si      -1.35750000       1.35750000      -1.35750000       0.00000000
Si       0.05373528      -2.62195152       2.60361984       0.00000000
Si       0.11892786      -2.73016056      -2.50117746       0.00000000
Si      -0.04038834       2.68171410       2.61207978       0.00000000
Si      -0.14253750       2.55135066      -2.76503202       0.00000000
Si      -2.55659604      -2.84524398      -0.04821840       0.00000000
Si       2.71500000       0.00000000      -2.71500000       0.00000000
