10
Lattice="10.86 0.0 0.0 0.0 10.86 0.0 0.0 0.0 10.86" Properties=species:S:1:pos:R:3:initial_magmoms:R:1 pbc="T T T"
Si       1.48358460      -1.51953120      -1.19352486       0.00000000
Si       1.48358460       1.19546880       1.52147514       0.00000000
Si      -1.23141540      -1.51953120       1.52147514       0.00000000
Si       0.13384950       2.45640168      -2.40844392       0.00000000
Si       0.07418466      -2.73543852      -2.33983044       0.00000000
Si      -2.53518012       2.64601728       0.05259498       0.00000000
Si       2.84108460      -0.16203120      -2.55102486       0.00000000
Si       2.84108460       2.55296880       0.16397514       0.00000000
Si       0.12608460       2.55296880       2.87897514       0.00000000
Si      -2.58891540      -0.16203120       2.87897514       0.00000000
