10
Lattice="16.28999089631971 0.0 0.0 0.0 16.28999089631971 0.0 0.0 0.0 34.48637585096406" Properties=species:S:1:pos:R:3:initial_magmoms:R:1 pbc="T T T"
Si       1.11573468       1.56667609      -1.35604096       0.00000000
Si       1.33270119      -1.36900087       1.42119124       0.00000000
Si      -1.40559894       1.33623775       1.40067184       0.00000000
Si      -0.77312340      -1.71612448      -1.48201976       0.00000000
Si      -0.76214394       3.42738505      -1.37852609       0.00000000
Si       2.30542596      -0.31662710      -3.00614600       0.00000000
Si       2.70549207      -2.67635482       0.00971137       0.00000000
Si       2.72170062       2.70906121      -0.03683837       0.00000000
Si       2.68335396      -0.01998620       2.78368664       0.00000000
Si       1.01248866      -3.48041293      -1.35955857       0.00000000
