10
Lattice="16.28999089631971 0.0 0.0 0.0 16.28999089631971 0.0 0.0 0.0 34.48637585096406" Properties=species:S:1:pos:R:3:initial_magmoms:R:1 pbc="T T T"
Si       1.35744570       1.35249843      -1.39531955       0.00000000
Si      -1.35835794      -1.36575761      -1.39449187       0.00000000
Si       1.46181573      -1.26639845       1.50750379       0.00000000
Si      -1.41954318       1.37361027       1.55074973       0.00000000
Si       2.69832447       2.71281117      -0.02041595       0.00000000
Si       2.70508482      -2.70718853      -0.02845128       0.00000000
Si      -2.72644101      -2.69145239      -0.03069289       0.00000000
Si      -2.71533123       2.70930882      -0.00641447       0.00000000
Si       0.00112401       2.70761466      -2.75404903       0.00000000
Si      -2.71265967      -0.00670822      -2.75256611       0.00000000
