10
Lattice="16.28999089631971 0.0 0.0 0.0 16.28999089631971 0.0 0.0 0.0 34.48637585096406" Properties=species:S:1:pos:R:3:initial_magmoms:R:1 pbc="T T T"
Si       2.08643949      -1.03937042       0.00358659       0.00000000
Si       0.08063550       0.68738913      -2.25568613       0.00000000
Si      -2.02211028      -1.19933007       0.44515039       0.00000000
Si       0.59626287       1.62461799       1.66545148       0.00000000
Si       1.09722924       2.81712744      -2.00165935       0.00000000
Si      -2.79621108      -0.18534762       2.47032946       0.00000000
Si      -3.51383445      -0.29488158      -1.29027399       0.00000000
Si       3.59567541       0.48123918      -1.07121641       0.00000000
Si      -2.20284783       0.80586630      -3.00442026       0.00000000
Si       2.40042924      -2.12026893       2.09408288       0.00000000
