10
Lattice="16.28999089631971 0.0 0.0 0.0 16.28999089631971 0.0 0.0 0.0 34.48637585096406" Properties=species:S:1:pos:R:3:initial_magmoms:R:1 pbc="T T T"
Si      -1.26084600       1.40699988      -1.33538219       0.00000000
Si      -1.30899924      -1.10949561       1.59854787       0.00000000
Si       1.48872681      -1.31665554      -1.30641362       0.00000000
Si       0.75258171       1.91935296       1.19026344       0.00000000
Si       0.72677835      -1.96454142       2.99417780       0.00000000
Si      -2.59483410       0.04963563      -2.68983536       0.00000000
Si      -2.64463263      -2.64046239       0.16746593       0.00000000
Si       1.33408584       1.12616028       3.34349049       0.00000000
Si       0.12230532      -2.66927940      -2.68273116       0.00000000
Si      -2.63443509       2.77995366       0.06414469       0.00000000
