10
Lattice="16.28999089631971 0.0 0.0 0.0 16.28999089631971 0.0 0.0 0.0 34.48637585096406" Properties=species:S:1:pos:R:3:initial_magmoms:R:1 pbc="T T T"
Si       1.57338594      -1.17188631       1.24985593       0.00000000
Si       1.36808307       1.32569478      -1.36379898       0.00000000
Si      -1.34631963      -1.39118229      -1.36290234       0.00000000
Si      -1.33266861       1.34953758       1.52643682       0.00000000
Si      -2.47975502      -0.38858166       2.77001623       0.00000000
Si       0.44663922      -2.83470435       2.47633009       0.00000000
Si      -2.70635381       2.67987997       0.02307140       0.00000000
Si       0.01378134       2.68474417      -2.72187322       0.00000000
Si       2.72644101       2.69145239       0.03069289       0.00000000
Si      -2.70237579      -0.03065778      -2.72314922       0.00000000
