10
Lattice="16.28999089631971 0.0 0.0 0.0 16.28999089631971 0.0 0.0 0.0 34.48637585096406" Properties=species:S:1:pos:R:3:initial_magmoms:R:1 pbc="T T T"
Si       1.25273358      -1.09535589      -1.96431058       0.00000000
Si       2.26147554      -0.06522516       1.34676270       0.00000000
Si      -1.30354209      -2.04410178       1.03428148       0.00000000
Si      -1.16297568       1.61280774      -1.81653638       0.00000000
Si      -0.55250793       2.21744367       1.50164110       0.00000000
Si      -2.28765357       2.82774852       0.08783685       0.00000000
Si       2.84644944      -2.22738057      -0.73118055       0.00000000
Si       2.39463000      -2.37943143       1.61468751       0.00000000
Si       0.33143634      -3.17058786       2.37435382       0.00000000
Si       4.04482329      -0.14268411      -0.27789137       0.00000000
