10
Lattice="16.28999089631971 0.0 0.0 0.0 16.28999089631971 0.0 0.0 0.0 34.48637585096406" Properties=species:S:1:pos:R:3:initial_magmoms:R:1 pbc="T T T"
Si      -0.79126136       1.49812451      -1.65448481       0.00000000
Si       1.08023877      -1.62703773      -1.35514290       0.00000000
Si      -1.83334895      -0.54295452       1.42152921       0.00000000
Si       1.06052787       0.74831210       2.00738409       0.00000000
Si      -1.09422278       1.08436177       2.99293629       0.00000000
Si       1.86383664      -1.38363255       2.57706485       0.00000000
Si      -1.71643562      -0.08480085      -3.21506316       0.00000000
Si       1.86048090      -0.31406485      -3.25472251       0.00000000
Si       0.48418115      -3.25071090       1.88050864       0.00000000
Si       1.11663063       3.01260581      -2.17571218       0.00000000
