10
Lattice="16.28999089631971 0.0 0.0 0.0 16.28999089631971 0.0 0.0 0.0 34.48637585096406" Properties=species:S:1:pos:R:3:initial_magmoms:R:1 pbc="T T T"
Si      -1.57338594       1.17188631      -1.24985593       0.00000000
Si       1.16624997      -1.56291147      -1.27144442       0.00000000
Si      -1.12674672      -1.66281804       1.22647416       0.00000000
Si       1.29956733       1.14292269       1.70114490       0.00000000
Si      -0.20530287       2.49758109      -2.61365491       0.00000000
Si       2.51178768      -0.21691764      -2.61717253       0.00000000
Si       2.61487080       2.59694025       0.28834075       0.00000000
Si       2.39948442      -2.93084793       0.16763837       0.00000000
Si      -2.41794099      -0.54467244       2.90385793       0.00000000
Si      -2.90605455       2.52142389       0.27658089       0.00000000
