10
Lattice="16.28999089631971 0.0 0.0 0.0 16.28999089631971 0.0 0.0 0.0 34.48637585096406" Properties=species:S:1:pos:R:3:initial_magmoms:R:1 pbc="T T T"
Si      -1.73514564       0.61030485      -1.41380425       0.00000000
Si      -0.78016068      -0.78944598       2.06338999       0.00000000
Si       1.48108680       1.70840465       0.73349114       0.00000000
Si       0.55250793      -2.21744367      -1.50164110       0.00000000
Si      -0.61046775      -0.60463593      -3.31817748       0.00000000
Si      -3.48097752      -0.70242480      -0.41376777       0.00000000
Si       1.29311649      -1.25059959       3.11615618       0.00000000
Si       2.81398347      -2.28266883      -0.15487840       0.00000000
Si      -2.71241532      -2.00233422       1.48315640       0.00000000
Si       2.74452291       2.29117777      -1.14632777       0.00000000
