10
Lattice="16.28999089631971 0.0 0.0 0.0 16.28999089631971 0.0 0.0 0.0 34.48637585096406" Properties=species:S:1:pos:R:3:initial_magmoms:R:1 pbc="T T T"
Si      -2.30576805       0.46030653       0.09845866       0.00000000
Si       0.51145713      -2.29952898       0.40793957       0.00000000
Si       1.04984163      -0.06040332      -2.15915871       0.00000000
Si       1.00181871       1.57866390       1.55695728       0.00000000
Si      -2.52159426       0.91650798       2.40197742       0.00000000
Si       3.27122748      -0.44292510      -1.46618909       0.00000000
Si       2.64086964      -2.52270198      -0.59261421       0.00000000
Si       1.79180226       3.41637138       0.23209344       0.00000000
Si       3.10348935       0.84888819       2.23530467       0.00000000
Si      -1.13477769      -3.73982562      -0.61323708       0.00000000
