10
Lattice="16.28999089631971 0.0 0.0 0.0 16.28999089631971 0.0 0.0 0.0 34.48637585096406" Properties=species:S:1:pos:R:3:initial_magmoms:R:1 pbc="T T T"
Si      -2.30275440       0.30151161      -0.36510747       0.00000000
Si       1.86846300       1.47443626       0.12773761       0.00000000
Si      -0.48013146      -0.45911736       2.30955388       0.00000000
Si       0.84077577      -1.29028203      -1.89164775       0.00000000
Si      -2.68263720      -1.95243795      -1.04662761       0.00000000
Si       1.55447325       2.55533478      -1.96275869       0.00000000
Si       1.63075932       0.54742545      -3.21651159       0.00000000
Si       3.71281680       0.01796787      -0.18833020       0.00000000
Si       2.94244641      -2.02005774      -1.21330035       0.00000000
Si      -2.55407652       2.39537512      -1.52119489       0.00000000
