10
Lattice="16.28999089631971 0.0 0.0 0.0 16.28999089631971 0.0 0.0 0.0 34.48637585096406" Properties=species:S:1:pos:R:3:initial_magmoms:R:1 pbc="T T T"
Si       0.33350517      -0.95371434      -2.09222062       0.00000000
Si      -2.23591653       0.76307247       0.28030542       0.00000000
Si       0.60517350      -1.96941213       1.20474773       0.00000000
Si       1.57165920       1.95831864      -0.37241858       0.00000000
Si      -1.51772301       2.84428287      -0.91251001       0.00000000
Si      -0.79998561      -3.01079925      -1.83619362       0.00000000
Si       0.05983317       3.59998299       0.72776640       0.00000000
Si      -0.82574010      -3.64996998       0.41373328       0.00000000
Si       2.73282669      -2.58175323       0.30134212       0.00000000
Si       1.61738523      -2.97406530      -1.74008004       0.00000000
