10
Lattice="16.28999089631971 0.0 0.0 0.0 16.28999089631971 0.0 0.0 0.0 34.48637585096406" Properties=species:S:1:pos:R:3:initial_magmoms:R:1 pbc="T T T"
Si       0.60663960       1.30891779       1.85098829       0.00000000
Si      -2.30513274       0.56576799      -0.11970228       0.00000000
Si       0.04455315      -2.39132313       0.33324204       0.00000000
Si       1.69417629       1.12184343      -1.88585403       0.00000000
Si      -0.18119367      -2.27667411       2.78301760       0.00000000
Si       1.09623555       3.37862745       0.91399293       0.00000000
Si      -3.35828124      -0.99631269       1.34645232       0.00000000
Si      -1.32040224       1.46108268       3.20909701       0.00000000
Si      -2.90253591       0.17868501      -2.47391604       0.00000000
Si      -0.62299476       3.70765287      -0.67900263       0.00000000
