10
Lattice="16.28999089631971 0.0 0.0 0.0 16.28999089631971 0.0 0.0 0.0 34.48637585096406" Properties=species:S:1:pos:R:3:initial_magmoms:R:1 pbc="T T T"
Si       1.56067974      -1.11148299      -1.35993651       0.00000000
Si       1.27374768       1.35884664       1.51074348       0.00000000
Si      -1.44047583      -1.29310020       1.57636764       0.00000000
Si      -0.70379316       1.22839632      -2.08994452       0.00000000
Si       2.59564860      -2.54542653       0.24230141       0.00000000
Si       2.47915881       2.72396493       0.05035014       0.00000000
Si      -1.67464458       3.19127616      -1.24237238       0.00000000
Si       3.56449635       0.52802406      -1.27544484       0.00000000
Si      -3.04644177      -2.43548532       0.25716505       0.00000000
Si       2.60949510       0.04399929       3.01309500       0.00000000
