10
Lattice="16.28999089631971 0.0 0.0 0.0 16.28999089631971 0.0 0.0 0.0 34.48637585096406" Properties=species:S:1:pos:R:3:initial_magmoms:R:1 pbc="T T T"
Si      -0.27249912       0.10632483       2.31489927       0.00000000
Si       2.06319366       0.79115643      -0.75966631       0.00000000
Si       0.38105568      -2.35072845      -0.20036596       0.00000000
Si      -1.63497843       1.12648608      -1.34007234       0.00000000
Si      -1.78588899      -0.92660778      -2.47660598       0.00000000
Si      -2.32694505      -1.10829015       2.61393080       0.00000000
Si       1.36578618      -1.45541376       3.12843333       0.00000000
Si      -0.21634749      -2.73781143      -2.55457972       0.00000000
Si       1.93003920       3.10536270      -1.02759112       0.00000000
Si       3.78242397       0.46213101       0.83332925       0.00000000
