10
Lattice="16.28999089631971 0.0 0.0 0.0 16.28999089631971 0.0 0.0 0.0 34.48637585096406" Properties=species:S:1:pos:R:3:initial_magmoms:R:1 pbc="T T T"
Si      -0.13315446       2.31420627      -0.26792480       0.00000000
Si      -2.06319366      -0.79115643       0.75966631       0.00000000
Si       1.71923031      -0.32902542       1.59299556       0.00000000
Si       0.45181944       0.15205086      -2.34586806       0.00000000
Si       3.24420237      -0.68162247      -0.13522116       0.00000000
Si       1.65019329       2.23674732      -1.89257888       0.00000000
Si      -1.68213798      -3.14188488       0.55930036       0.00000000
Si       2.31717105      -2.58580944      -1.20685140       0.00000000
Si       1.22963436      -2.39873508       2.52999092       0.00000000
Si      -2.39463000       2.37943143      -1.61468751       0.00000000
