10
Lattice="16.28999089631971 0.0 0.0 0.0 16.28999089631971 0.0 0.0 0.0 34.48637585096406" Properties=species:S:1:pos:R:3:initial_magmoms:R:1 pbc="T T T"
Si      -1.38010183       1.27663101       1.41212132       0.00000000
Si      -1.00474276      -1.73297907      -1.29127889       0.00000000
Si       1.36696395      -1.41325524       1.39444014       0.00000000
Si       0.86949993       1.99700739      -1.12089751       0.00000000
Si      -2.78075417       2.52525951      -0.04724291       0.00000000
Si      -1.00036075       3.46978629      -1.25299212       0.00000000
Si      -0.00519977       2.64067416       2.76754700       0.00000000
Si       2.71815429      -2.72391606      -0.12026785       0.00000000
Si      -2.59322369      -2.85509943      -0.03328627       0.00000000
Si       2.71005816      -0.07571592       2.77713422       0.00000000
