10
Lattice="16.28999089631971 0.0 0.0 0.0 16.28999089631971 0.0 0.0 0.0 34.48637585096406" Properties=species:S:1:pos:R:3:initial_magmoms:R:1 pbc="T T T"
Si       1.35065277       1.34901467       1.36249540       0.00000000
Si      -1.36506942      -1.36199061       1.35966751       0.00000000
Si       1.37279088      -1.30735395      -1.41147987       0.00000000
Si      -1.33270119       1.36900087      -1.42119124       0.00000000
Si      -0.32021253      -2.11141206      -2.78074981       0.00000000
Si      -2.10582459      -0.34712361      -2.90321100       0.00000000
Si       2.57435757       0.18980686      -2.77774950       0.00000000
Si       2.71054197       2.71129850      -0.00593166       0.00000000
Si      -0.00377928       2.70761696       2.72098347       0.00000000
Si       2.70953199      -0.00746644       2.72346649       0.00000000
