10
Lattice="16.28999089631971 0.0 0.0 0.0 16.28999089631971 0.0 0.0 0.0 34.48637585096406" Properties=species:S:1:pos:R:3:initial_magmoms:R:1 pbc="T T T"
Si       1.35529542      -1.35692697       1.35855705       0.00000000
Si      -1.36054080       1.35673709       1.35790181       0.00000000
Si       1.33727868       1.35481486      -1.38346312       0.00000000
Si      -1.33665966      -1.36902971      -1.37726247       0.00000000
Si      -2.73678842      -0.01501775      -2.66813307       0.00000000
Si       2.71050939      -2.71241436      -0.00327621       0.00000000
Si       2.71138905       2.71447600      -0.00479361       0.00000000
Si       2.71261080       0.00022643       2.71532081       0.00000000
Si      -0.00245979      -2.71438545       2.71497594       0.00000000
Si      -0.00226431       2.71532308       2.71514837       0.00000000
