10
Lattice="16.28999089631971 0.0 0.0 0.0 16.28999089631971 0.0 0.0 0.0 34.48637585096406" Properties=species:S:1:pos:R:3:initial_magmoms:R:1 pbc="T T T"
Si       1.59371586      -1.13202468       1.23313003       0.00000000
Si      -1.31579217      -1.36560699      -1.38573233       0.00000000
Si       1.39598784       1.29109653      -1.45087713       0.00000000
Si      -1.25273358       1.09535589       1.96431058       0.00000000
Si       2.79208971       0.95267178       1.68641921       0.00000000
Si       1.00874196       1.03013073       3.31107328       0.00000000
Si      -2.41570926       2.70816363       0.14777420       0.00000000
Si       2.81836548       2.54619216      -0.09811379       0.00000000
Si      -2.54902662       0.00232947      -2.82481511       0.00000000
Si       0.14437827      -2.72603376      -2.78263825       0.00000000
