10
Lattice="16.28999089631971 0.0 0.0 0.0 16.28999089631971 0.0 0.0 0.0 34.48637585096406" Properties=species:S:1:pos:R:3:initial_magmoms:R:1 pbc="T T T"
Si      -0.13923063      -1.96138116       1.25051117       0.00000000
Si      -0.47824182       1.69642431       1.57992522       0.00000000
Si      -2.07327717       0.46115361      -1.05276618       0.00000000
Si       1.99816398       0.17819631      -1.28575627       0.00000000
Si      -2.77495263       1.78380387       0.88412771       0.00000000
Si      -1.29311649       1.25059959      -3.11615618       0.00000000
Si       2.08215522      -2.34390294       1.94348080       0.00000000
Si       1.52086698      -1.03206924      -3.27103458       0.00000000
Si       2.39762736       2.47062515      -1.60372083       0.00000000
Si       0.18797031       2.95900424      -2.38266504       0.00000000
