10
Lattice="16.28999089631971 0.0 0.0 0.0 16.28999089631971 0.0 0.0 0.0 34.48637585096406" Properties=species:S:1:pos:R:3:initial_magmoms:R:1 pbc="T T T"
Si       1.35524655       1.35812964       1.35717759       0.00000000
Si       1.35773892      -1.35716806      -1.35748797       0.00000000
Si      -1.35860229       1.35741288      -1.35666030       0.00000000
Si      -1.35780408      -1.35747757       1.35814321       0.00000000
Si      -2.71507059      -0.00049360      -2.71228600       0.00000000
Si       2.71426090       0.00142140      -2.71456211       0.00000000
Si      -0.00047241       2.71515994      -2.71394135       0.00000000
Si       0.00039096       2.71677265       2.71304470       0.00000000
Si      -2.71502172      -2.71489069      -0.00003449       0.00000000
Si       2.71510204       2.71486672      -0.00013795       0.00000000
