10
Lattice="16.28999089631971 0.0 0.0 0.0 16.28999089631971 0.0 0.0 0.0 34.48637585096406" Properties=species:S:1:pos:R:3:initial_magmoms:R:1 pbc="T T T"
Si       1.33793028       1.33889139       1.37383452       0.00000000
Si      -1.35782037       1.35340578      -1.35555673       0.00000000
Si       1.35485559      -1.35864301      -1.35586711       0.00000000
Si      -1.35755973      -1.35466337       1.38845675       0.00000000
Si       2.51441037      -0.14529051       2.82557381       0.00000000
Si      -0.00055386       2.71306692      -2.71304470       0.00000000
Si       2.71471108      -0.00190593      -2.71318265       0.00000000
Si      -2.71555929      -0.00138465      -2.71301022       0.00000000
Si      -2.71547784       2.71326240       0.00506950       0.00000000
Si       2.71573848       2.71399545       0.00631101       0.00000000
