10
Lattice="16.28999089631971 0.0 0.0 0.0 16.28999089631971 0.0 0.0 0.0 34.48637585096406" Properties=species:S:1:pos:R:3:initial_magmoms:R:1 pbc="T T T"
Si      -1.83396078      -0.13190502       1.53947268       0.00000000
Si       2.24342622      -0.33737567       0.80887840       0.00000000
Si      -1.00108566      -0.19602897      -2.22113076       0.00000000
Si       0.55544013       2.75265162      -1.30741373       0.00000000
Si      -2.78018172       0.93924719      -1.11929044       0.00000000
Si       1.84010211      -2.64105602       1.32814005       0.00000000
Si      -0.70701858       0.89830879       3.36870005       0.00000000
Si      -1.71574425       3.04272765      -0.96623982       0.00000000
Si       1.73475468       0.46859488      -3.23785867       0.00000000
Si      -2.23342416      -2.42433386       1.85743724       0.00000000
