10
Lattice="16.28999089631971 0.0 0.0 0.0 16.28999089631971 0.0 0.0 0.0 34.48637585096406" Properties=species:S:1:pos:R:3:initial_magmoms:R:1 pbc="T T T"
Si      -1.41522211       1.22323239       1.39183642       0.00000000
Si       1.34038518       1.36200690      -1.36659238       0.00000000
Si      -1.37109250      -1.35505107      -1.35976407       0.00000000
Si       1.29058665      -1.32809112       1.49070892       0.00000000
Si      -2.33542792      -0.63358326       2.76515365       0.00000000
Si      -0.60795420      -2.43765189       2.69921566       0.00000000
Si       2.67437328       2.71937115      -0.01213921       0.00000000
Si       2.69893860      -2.71173114       0.02572685       0.00000000
Si       2.69960649       0.00286704      -2.72190771       0.00000000
Si      -2.73559177       2.69117316      -0.00227610       0.00000000
