10
Lattice="16.28999089631971 0.0 0.0 0.0 16.28999089631971 0.0 0.0 0.0 34.48637585096406" Properties=species:S:1:pos:R:3:initial_magmoms:R:1 pbc="T T T"
Si       1.30899924       1.10949561      -1.59854787       0.00000000
Si      -1.33563339      -1.53096678      -1.43108194       0.00000000
Si       2.03577759      -0.85504581       1.39562992       0.00000000
Si      -1.23955497       2.13338727       1.08273486       0.00000000
Si       0.91333143       0.46299438       3.06352994       0.00000000
Si      -1.50232896       0.06227667       3.30938345       0.00000000
Si       2.06158095       3.02884857      -0.40828443       0.00000000
Si       2.64912867      -2.74859541       0.08473307       0.00000000
Si       0.04815324       2.51649549      -2.93393007       0.00000000
Si       2.64308508       2.23565589       1.74494262       0.00000000
