10
Lattice="16.28999089631971 0.0 0.0 0.0 16.28999089631971 0.0 0.0 0.0 34.48637585096406" Properties=species:S:1:pos:R:3:initial_magmoms:R:1 pbc="T T T"
Si      -1.35433912       1.35745269      -1.35621197       0.00000000
Si       1.35801334       1.35635637       1.35717759       0.00000000
Si      -1.35652198      -1.35858946       1.35707413       0.00000000
Si       1.35846783      -1.35919219      -1.36169531       0.00000000
Si       0.00349754       2.70132556      -2.70081928       0.00000000
Si      -2.71383736      -0.01179851      -2.70831317       0.00000000
Si       2.71500781       2.71271227      -0.00034486       0.00000000
Si       0.00084114       2.71344532       2.71442416       0.00000000
Si      -2.71473331       2.71373854       0.00062076       0.00000000
Si      -2.71426090      -0.00142140       2.71456211       0.00000000
