10
Lattice="16.28999089631971 0.0 0.0 0.0 16.28999089631971 0.0 0.0 0.0 34.48637585096406" Properties=species:S:1:pos:R:3:initial_magmoms:R:1 pbc="T T T"
Si       1.96154406      -1.26980550       0.52560715       0.00000000
Si       0.29131407       1.18366398      -2.10235962       0.00000000
Si      -1.55347956       0.56236338       1.85333336       0.00000000
Si      -1.96511157      -1.52347338      -0.44742649       0.00000000
Si      -2.34642789      -1.78308711       1.92140950       0.00000000
Si      -2.93347062       1.98379620       0.12487524       0.00000000
Si      -1.29451743       2.91721320      -1.54071419       0.00000000
Si      -3.60460233      -0.02347389      -1.09508099       0.00000000
Si       2.33640954       2.30803236      -2.03038651       0.00000000
Si       1.41444441      -3.36114828      -1.70990444       0.00000000
