10
Lattice="16.28999089631971 0.0 0.0 0.0 16.28999089631971 0.0 0.0 0.0 34.48637585096406" Properties=species:S:1:pos:R:3:initial_magmoms:R:1 pbc="T T T"
Si       0.79181129       1.37256282       1.76349630       0.00000000
Si      -1.93587658      -1.31404914       0.51546815       0.00000000
Si       2.08793980      -1.04441706      -0.56471472       0.00000000
Si      -0.89497816       1.47201327      -1.67683199       0.00000000
Si       3.21424669       1.00773198      -1.11584180       0.00000000
Si      -2.90348629       2.08011897      -0.63941225       0.00000000
Si       3.06253792       1.74918762       1.14950052       0.00000000
Si      -3.72769513       0.17980902       0.37341869       0.00000000
Si       1.61484562      -2.29307814      -2.52216251       0.00000000
Si      -2.28746365      -2.73470004      -1.33103691       0.00000000
