10
Lattice="16.28999089631971 0.0 0.0 0.0 16.28999089631971 0.0 0.0 0.0 34.48637585096406" Properties=species:S:1:pos:R:3:initial_magmoms:R:1 pbc="T T T"
Si      -1.35759231       1.35745776       1.35755694       0.00000000
Si      -1.35721764      -1.35741312      -1.35817770       0.00000000
Si       1.35780408       1.35747757      -1.35814321       0.00000000
Si       1.36076886      -1.35873261       1.35790181       0.00000000
Si      -2.71466334      -2.71319724      -0.00075870       0.00000000
Si       2.71305063       2.71560720      -0.00096562       0.00000000
Si      -2.71498914       2.71416717      -0.00055178       0.00000000
Si       2.71399545      -2.71557558      -0.00013795       0.00000000
Si      -0.00079821       2.71489044      -2.71480351       0.00000000
Si      -2.71498914       0.00135207      -2.71518286       0.00000000
