10
Lattice="16.28999089631971 0.0 0.0 0.0 16.28999089631971 0.0 0.0 0.0 34.48637585096406" Properties=species:S:1:pos:R:3:initial_magmoms:R:1 pbc="T T T"
Si      -2.16215119      -0.76110138       0.42369985       0.00000000
Si       1.84263846      -1.40061420      -0.28927188       0.00000000
Si      -0.42515597       1.25729478      -1.92985867       0.00000000
Si       0.92836221       1.52055747       1.60289316       0.00000000
Si      -2.08293292       2.68661196      -0.98213805       0.00000000
Si       1.84557066       1.63391958      -2.54385445       0.00000000
Si       2.85616968      -1.14456798       1.81263941       0.00000000
Si       3.12198990      -0.28403244      -1.94051497       0.00000000
Si      -3.54707812       1.09123452       0.14939506       0.00000000
Si       1.73776344       0.23524389       3.38283947       0.00000000
