10
Lattice="16.28999089631971 0.0 0.0 0.0 16.28999089631971 0.0 0.0 0.0 34.48637585096406" Properties=species:S:1:pos:R:3:initial_magmoms:R:1 pbc="T T T"
Si      -1.35770145      -1.35741098       1.35697068       0.00000000
Si       1.35697329      -1.35706889      -1.35828116       0.00000000
Si      -1.35810219       1.35769775      -1.35783284       0.00000000
Si       1.35845568       1.35799097       1.35824667       0.00000000
Si       2.71275741      -0.00105842       2.71632091       0.00000000
Si       2.71469592      -2.71441685      -0.00068973       0.00000000
Si      -0.00110772       2.71405365      -2.71535529       0.00000000
Si       2.71472850       0.00038959      -2.71470005       0.00000000
Si       2.71456560       2.71537314      -0.00051730       0.00000000
Si      -2.71527438       2.71478670      -0.00058627       0.00000000
