10
Lattice="16.28999089631971 0.0 0.0 0.0 16.28999089631971 0.0 0.0 0.0 34.48637585096406" Properties=species:S:1:pos:R:3:initial_magmoms:R:1 pbc="T T T"
Si      -0.92567992      -1.79611911      -1.23209544       0.00000000
Si       1.79032639       1.07297343      -1.23654418       0.00000000
Si       1.87620727      -0.68308857       1.38059386       0.00000000
Si      -1.81824160       1.70342901       0.02034697       0.00000000
Si      -0.12621003      -1.44819729       2.48308942       0.00000000
Si      -2.24604958      -0.32817834      -2.62620796       0.00000000
Si       0.47131531       2.41649118      -2.63293281       0.00000000
Si       1.97266036       1.40748858       2.75149703       0.00000000
Si      -0.92708086       3.61105317      -1.17681375       0.00000000
Si      -3.65080144       0.90083700      -1.21892164       0.00000000
