10
Lattice="16.28999089631971 0.0 0.0 0.0 16.28999089631971 0.0 0.0 0.0 34.48637585096406" Properties=species:S:1:pos:R:3:initial_magmoms:R:1 pbc="T T T"
Si       1.44965036      -1.71587457      -0.66989823       0.00000000
Si      -0.76125451       1.26364788      -1.85685097       0.00000000
Si      -1.86882531      -0.92841597       1.13543007       0.00000000
Si       0.54912775       1.35772263       1.88347447       0.00000000
Si      -1.56164478      -0.54982008      -3.25492943       0.00000000
Si      -1.32172566       1.16292681       3.37094166       0.00000000
Si       3.57314960      -0.80544276      -1.19574678       0.00000000
Si       1.07660936       3.55115484       1.15663921       0.00000000
Si       2.25905159      -3.00118815       1.11004809       0.00000000
Si      -2.81322177       2.40025005      -1.35997099       0.00000000
