10
Lattice="16.28999089631971 0.0 0.0 0.0 16.28999089631971 0.0 0.0 0.0 34.48637585096406" Properties=species:S:1:pos:R:3:initial_magmoms:R:1 pbc="T T T"
Si       0.52748160       2.19343221      -0.72683526       0.00000000
Si      -0.54912775      -1.35772263      -1.88347447       0.00000000
Si      -1.87085341      -0.19479582       1.48746719       0.00000000
Si       1.25377125      -1.27887903       1.62941320       0.00000000
Si      -2.41795306      -2.28613860      -0.74804440       0.00000000
Si       3.44638896      -1.17450900       0.87716146       0.00000000
Si       3.47214345      -0.53533827      -1.37276544       0.00000000
Si      -1.49598793       3.38304204      -1.06852647       0.00000000
Si       2.03621253       3.23853345       0.74373360       0.00000000
Si      -1.31038226      -0.09407475      -3.74032544       0.00000000
