10
Lattice="16.28999089631971 0.0 0.0 0.0 16.28999089631971 0.0 0.0 0.0 34.48637585096406" Properties=species:S:1:pos:R:3:initial_magmoms:R:1 pbc="T T T"
Si      -1.35861082      -1.35511623      -1.35507392       0.00000000
Si       1.35706126      -1.35663120       1.35717759       0.00000000
Si      -1.35715252       1.35786924       1.35752246       0.00000000
Si       1.35991201       1.35731538      -1.35762592       0.00000000
Si      -2.70446647      -0.00869886      -2.71307919       0.00000000
Si       2.71382278       0.00078192      -2.71256189       0.00000000
Si      -2.71414273      -2.71406061       0.00000000       0.00000000
Si       2.71460470      -2.71360449      -0.00044832       0.00000000
Si       2.71475131       0.00083079       2.71425173       0.00000000
Si      -0.00030951      -2.71622718       2.71376892       0.00000000
