10
Lattice="16.28999089631971 0.0 0.0 0.0 16.28999089631971 0.0 0.0 0.0 34.48637585096406" Properties=species:S:1:pos:R:3:initial_magmoms:R:1 pbc="T T T"
Si      -1.35677618       1.35366642      -1.36338514       0.00000000
Si       1.35969372      -1.36021663      -1.36162634       0.00000000
Si       1.35702216       1.35580041       1.38452531       0.00000000
Si      -1.36044143      -1.36508082       1.38331828       0.00000000
Si      -2.71300895       2.71248048      -0.00096562       0.00000000
Si       2.71560816       2.71062342      -0.00068973       0.00000000
Si      -2.71105415      -2.71818450      -0.00144843       0.00000000
Si       0.00083079       2.71171485      -2.72039031       0.00000000
Si       2.71399545      -2.71926602      -0.00355210       0.00000000
Si      -2.71403634      -0.00342090      -2.72045928       0.00000000
