10
Lattice="16.28999089631971 0.0 0.0 0.0 16.28999089631971 0.0 0.0 0.0 34.48637585096406" Properties=species:S:1:pos:R:3:initial_magmoms:R:1 pbc="T T T"
Si       0.81961506       0.53504505      -2.12212032       0.00000000
Si       1.50873093       1.04510124       1.47056886       0.00000000
Si      -0.52748160      -2.19343221       0.72683526       0.00000000
Si      -2.02346954       1.18960983      -0.34169120       0.00000000
Si      -2.13295463       2.82483261       1.30213731       0.00000000
Si       0.33050781       2.85648408      -2.49471134       0.00000000
Si       2.22692445       3.12631164       0.27775343       0.00000000
Si      -1.07660936      -3.55115484      -1.15663921       0.00000000
Si      -1.95792263       2.38474197      -2.38045791       0.00000000
Si      -0.21760182      -0.69252048      -3.86516619       0.00000000
