10
Lattice="16.28999089631971 0.0 0.0 0.0 16.28999089631971 0.0 0.0 0.0 34.26581377546328" Properties=species:S:1:pos:R:3:initial_magmoms:R:1 pbc="T T T"
Si       1.42080240      -1.93891725       0.10081008       0.00000000
Si       0.77536165       1.80337372       1.41336079       0.00000000
Si      -1.88438063      -0.91095309       1.27371382       0.00000000
Si       1.14296016       0.75063410      -2.10594383       0.00000000
Si       2.16219288       0.50134104       2.80082891       0.00000000
Si      -0.57163808      -2.23273998       2.79354057       0.00000000
Si       3.23010012      -1.07921250       1.35513972       0.00000000
Si      -3.27825077      -2.18903391      -0.22043210       0.00000000
Si      -3.23329037      -0.83673585      -2.11094664       0.00000000
Si       1.95876336       3.42923138       0.16502429       0.00000000
