10
Lattice="16.28999089631971 0.0 0.0 0.0 16.28999089631971 0.0 0.0 0.0 34.26581377546328" Properties=species:S:1:pos:R:3:initial_magmoms:R:1 pbc="T T T"
Si       2.14832520      -0.44255043       1.05970515       0.00000000
Si      -1.27549071      -2.11451042       0.00503708       0.00000000
Si      -0.21230757       0.91254951      -2.28542826       0.00000000
Si      -0.93243960       1.69225407       1.70349162       0.00000000
Si      -2.83341744      -1.87778088       1.78398206       0.00000000
Si      -1.17219582      -0.92815533      -3.59568518       0.00000000
Si       3.08097657       1.77705981       1.65593064       0.00000000
Si      -2.73481407      -1.98579987      -2.02641283       0.00000000
Si      -0.83533491       0.63791640       3.84205652       0.00000000
Si       1.95160716      -1.65079602       3.18247350       0.00000000
