10
Lattice="16.28999089631971 0.0 0.0 0.0 16.28999089631971 0.0 0.0 0.0 34.26581377546328" Properties=species:S:1:pos:R:3:initial_magmoms:R:1 pbc="T T T"
Si      -1.69818363      -1.14877080      -1.11773228       0.00000000
Si       1.22085405      -1.36462959       1.50852931       0.00000000
Si       1.39457061       1.25486757      -1.49945370       0.00000000
Si      -1.49753970       1.34794863       1.49599487       0.00000000
Si      -0.58368699       1.64737512      -2.99745312       0.00000000
Si       2.53120536       2.68451055       0.09996371       0.00000000
Si       2.70959715      -2.65739910       0.09877812       0.00000000
Si       2.57079006      -0.00671148       2.88778734       0.00000000
Si      -0.14903721       2.71176372       2.88953489       0.00000000
Si      -0.14424795      -2.72386230       2.88963769       0.00000000
