10
Lattice="16.28999089631971 0.0 0.0 0.0 16.28999089631971 0.0 0.0 0.0 34.26581377546328" Properties=species:S:1:pos:R:3:initial_magmoms:R:1 pbc="T T T"
Si       1.35586557      -1.35661491       1.35884587       0.00000000
Si      -1.36011726       1.35824391       1.36007944       0.00000000
Si      -1.34993601      -1.35791811      -1.37925803       0.00000000
Si       1.36461330       1.34467434      -1.39308429       0.00000000
Si       2.71500543       2.71285515      -0.00294686       0.00000000
Si       2.71355562       0.00017919       2.71748615       0.00000000
Si      -0.00138465      -2.71443039       2.71734908       0.00000000
Si      -2.71503801      -2.71715082       0.00185035       0.00000000
Si       2.71686249      -2.71535892       0.00270700       0.00000000
Si      -0.00218286       2.71591767       2.71813720       0.00000000
