10
Lattice="16.28999089631971 0.0 0.0 0.0 16.28999089631971 0.0 0.0 0.0 34.26581377546328" Properties=species:S:1:pos:R:3:initial_magmoms:R:1 pbc="T T T"
Si       0.22366170      -2.10686715      -1.03506802       0.00000000
Si      -0.75608406       0.08084727       2.26973451       0.00000000
Si      -1.56789621       1.13671620      -1.46003288       0.00000000
Si       2.35636479       0.64977552       0.26374412       0.00000000
Si       0.94333761       1.23818661       3.30816057       0.00000000
Si      -0.68194827       0.37976877      -3.60312086       0.00000000
Si      -1.52547705       3.40092846      -0.73572170       0.00000000
Si       2.33191350       2.97774684       0.41667253       0.00000000
Si       2.84534172       0.05082480       2.52741357       0.00000000
Si      -0.91870713      -2.18181744       2.98993378       0.00000000
