10
Lattice="16.28999089631971 0.0 0.0 0.0 16.28999089631971 0.0 0.0 0.0 34.26581377546328" Properties=species:S:1:pos:R:3:initial_magmoms:R:1 pbc="T T T"
Si      -1.55468502      -0.81039492      -1.51605751       0.00000000
Si       0.16262307       2.26266471      -0.72019928       0.00000000
Si      -1.53196047       0.53180334       1.92950905       0.00000000
Si       1.98840627      -1.53287271      -0.55466104       0.00000000
Si      -2.18755152      -2.75638203      -0.25168254       0.00000000
Si       1.70023617      -2.58673797       1.90675654       0.00000000
Si      -3.51021807       0.92431089       0.43150963       0.00000000
Si       0.91870713       2.18181744      -2.98993378       0.00000000
Si       1.86204474       3.42000405       0.31822679       0.00000000
Si      -0.66863934      -1.39316967      -3.62090483       0.00000000
