10
Lattice="16.28999089631971 0.0 0.0 0.0 16.28999089631971 0.0 0.0 0.0 34.26581377546328" Properties=species:S:1:pos:R:3:initial_magmoms:R:1 pbc="T T T"
Si       1.31698134      -1.25612190       1.53115504       0.00000000
Si       2.07065448       0.74375253      -1.07830533       0.00000000
Si      -1.40302512       1.44425511       1.49447004       0.00000000
Si      -0.73316403      -2.04968925      -1.29685011       0.00000000
Si       1.41696936       0.16384482      -3.33220632       0.00000000
Si      -2.62809828      -2.59874370       0.10817381       0.00000000
Si       2.70760977      -2.60354925       0.21105697       0.00000000
Si      -1.86903315       2.63816550      -2.09017267       0.00000000
Si      -0.03435561      -2.61837315       2.88801692       0.00000000
Si       2.67605604       0.09765855       2.88698894       0.00000000
