10
Lattice="16.28999089631971 0.0 0.0 0.0 16.28999089631971 0.0 0.0 0.0 34.26581377546328" Properties=species:S:1:pos:R:3:initial_magmoms:R:1 pbc="T T T"
Si      -0.19036494       0.98847461      -2.15388173       0.00000000
Si      -2.16272556       0.21690135       0.97397204       0.00000000
Si       1.18923516       1.49234060       1.46966157       0.00000000
Si       0.53973657      -2.40337773       0.05777219       0.00000000
Si       0.60623235       0.52237601       3.51447515       0.00000000
Si      -2.79484272       2.37929201       0.25963222       0.00000000
Si      -1.67425362      -0.08922033       3.32601307       0.00000000
Si      -0.21799278      -0.81034605      -3.64122447       0.00000000
Si      -2.03493051       2.51008442      -2.01431699       0.00000000
Si       3.50694378       1.13791744       1.34047938       0.00000000
