10
Lattice="16.28999089631971 0.0 0.0 0.0 16.28999089631971 0.0 0.0 0.0 34.26581377546328" Properties=species:S:1:pos:R:3:initial_magmoms:R:1 pbc="T T T"
Si      -1.36041048      -1.34029952       1.37416270       0.00000000
Si      -1.21990923       1.43785803      -1.41505212       0.00000000
Si       1.35814617       1.37318673       1.37666410       0.00000000
Si       1.44748053      -1.29985145      -1.43398056       0.00000000
Si       2.72772792      -2.68717301       0.01021807       0.00000000
Si       0.69726087       2.23158339      -3.03603645       0.00000000
Si      -0.00270414      -2.69909729       2.73413934       0.00000000
Si      -2.72759760      -2.70823598      -0.01808208       0.00000000
Si      -2.70865233       2.73062754      -0.00530092       0.00000000
Si       2.72052774       2.72523555       0.01328486       0.00000000
