10
Lattice="16.28999089631971 0.0 0.0 0.0 16.28999089631971 0.0 0.0 0.0 34.26581377546328" Properties=species:S:1:pos:R:3:initial_magmoms:R:1 pbc="T T T"
Si       1.35479043      -1.35564495       1.35798922       0.00000000
Si      -1.36099692       1.35874401       1.35613887       0.00000000
Si       1.36238157       1.35204882      -1.36337924       0.00000000
Si      -1.35814617      -1.37318673      -1.37666410       0.00000000
Si      -2.57805540       0.06467130      -2.79171622       0.00000000
Si       2.70832653      -2.71454509      -0.00143916       0.00000000
Si       2.71059084       0.00099695       2.71549873       0.00000000
Si       2.70925506       2.71721598       0.00219301       0.00000000
Si      -0.00350235      -2.71327447       2.71477915       0.00000000
Si      -0.00330687       2.71553811       2.71477915       0.00000000
