10
Lattice="16.28999089631971 0.0 0.0 0.0 16.28999089631971 0.0 0.0 0.0 34.26581377546328" Properties=species:S:1:pos:R:3:initial_magmoms:R:1 pbc="T T T"
Si       1.64046816       0.88863579       1.55760624       0.00000000
Si      -1.84140531       1.63127734      -0.07942820       0.00000000
Si       1.36933740      -0.15318627      -2.10676621       0.00000000
Si      -1.09118565      -1.90015749       1.52262768       0.00000000
Si      -2.60869689      -0.54679926      -1.70575316       0.00000000
Si      -1.27532781      -2.55783366      -1.56121988       0.00000000
Si       2.67465510       2.38413598       0.11739474       0.00000000
Si       0.18186156       2.12492950       2.96989311       0.00000000
Si      -1.07240328       3.33651454       1.40770351       0.00000000
Si      -2.53866618      -0.60030605       2.95660824       0.00000000
