10
Lattice="16.28999089631971 0.0 0.0 0.0 16.28999089631971 0.0 0.0 0.0 34.26581377546328" Properties=species:S:1:pos:R:3:initial_magmoms:R:1 pbc="T T T"
Si       1.97369640       1.39686750       0.34097930       0.00000000
Si      -1.98840627       1.53287271       0.55466104       0.00000000
Si       0.63721593      -1.12427064      -2.23084279       0.00000000
Si      -0.28817010      -1.05386526       2.46141758       0.00000000
Si      -1.05546168      -3.23194186       0.83509261       0.00000000
Si      -3.54309129       0.72247779      -0.96139647       0.00000000
Si      -1.45417572      -1.90702143      -2.91986016       0.00000000
Si       2.41614909       1.42237764       2.72029594       0.00000000
Si      -0.84603744       1.60782300      -3.47034076       0.00000000
Si       1.35200484       0.65427156      -3.68261760       0.00000000
