10
Lattice="16.28999089631971 0.0 0.0 0.0 16.28999089631971 0.0 0.0 0.0 34.26581377546328" Properties=species:S:1:pos:R:3:initial_magmoms:R:1 pbc="T T T"
Si      -0.77059845      -1.69412742      -1.51060924       0.00000000
Si      -1.73253924       1.77512130      -0.19754253       0.00000000
Si       1.85427441       0.97961544      -1.38704665       0.00000000
Si      -0.09511731       0.49635630       3.11154322       0.00000000
Si      -2.08498968      -0.41987475      -3.01707232       0.00000000
Si      -2.65362471      -2.60306055      -0.23146570       0.00000000
Si       0.63723222       2.28030678      -3.00555900       0.00000000
Si      -3.44491146       0.96371640      -1.68005379       0.00000000
Si       2.82507696       2.77956270       0.09556741       0.00000000
Si      -0.66837870       3.60056241      -1.55769050       0.00000000
