10
Lattice="16.28999089631971 0.0 0.0 0.0 16.28999089631971 0.0 0.0 0.0 34.26581377546328" Properties=species:S:1:pos:R:3:initial_magmoms:R:1 pbc="T T T"
Si      -1.82009799      -1.24928010       0.69446564       0.00000000
Si       1.00639620       1.86061122       0.96496012       0.00000000
Si      -0.04188159       0.40747806      -2.31153882       0.00000000
Si       1.53402930      -1.75417236       0.39751793       0.00000000
Si      -1.17125100      -3.02037777      -0.78499597       0.00000000
Si       3.28377078      -0.77196681      -0.72657272       0.00000000
Si       2.27993211       0.27720693      -2.59776133       0.00000000
Si      -0.97453296      -1.81213218      -2.90776432       0.00000000
Si       2.07599760       1.15918011       3.00679257       0.00000000
Si      -0.56239596       3.58303437       1.32869194       0.00000000
