10
Lattice="16.28999089631971 0.0 0.0 0.0 16.28999089631971 0.0 0.0 0.0 34.26581377546328" Properties=species:S:1:pos:R:3:initial_magmoms:R:1 pbc="T T T"
Si       2.24407782      -0.62625276      -0.23581746       0.00000000
Si       0.06100605      -0.24939990       2.36982501       0.00000000
Si      -0.83727342      -1.78248438      -1.35432278       0.00000000
Si      -0.84460392       2.23723602      -0.19822784       0.00000000
Si       2.25904833      -1.20295134       2.15754817       0.00000000
Si      -3.13168734      -1.46916252      -1.06388558       0.00000000
Si      -1.75000212      -1.71751986       2.77392197       0.00000000
Si       3.40190586       1.09986822      -1.36073049       0.00000000
Si       0.99116505       3.64285125      -0.63984590       0.00000000
Si      -0.16265565       1.85746725       3.40489302       0.00000000
