10
Lattice="16.28999089631971 0.0 0.0 0.0 16.28999089631971 0.0 0.0 0.0 34.26581377546328" Properties=species:S:1:pos:R:3:initial_magmoms:R:1 pbc="T T T"
Si       0.22428072      -1.75348818      -1.45605804       0.00000000
Si       1.18864872       1.79678700      -0.86295074       0.00000000
Si       0.85556709      -0.81161667       2.09974171       0.00000000
Si      -2.18646009       0.78949485      -0.73517345       0.00000000
Si       0.17570394       3.54201615       0.32764989       0.00000000
Si      -0.93354732      -3.47960916      -0.33114501       0.00000000
Si      -2.09598543       2.97233856       0.18986698       0.00000000
Si      -0.98391600      -0.34611363       3.57330959       0.00000000
Si      -0.84532068      -1.05205707      -3.49789049       0.00000000
Si       0.71436537       1.93178223      -3.22814985       0.00000000
