10
Lattice="16.28999089631971 0.0 0.0 0.0 16.28999089631971 0.0 0.0 0.0 34.26581377546328" Properties=species:S:1:pos:R:3:initial_magmoms:R:1 pbc="T T T"
Si      -1.35878148      -1.35674523       1.35596754       0.00000000
Si      -1.35790182       1.35725022      -1.35733817       0.00000000
Si       1.35884664       1.35796698       1.35603607       0.00000000
Si       1.35773892      -1.35801585      -1.35788643       0.00000000
Si      -2.71314837      -0.00133578       2.71357984       0.00000000
Si      -0.00198738       2.71397916       2.71481341       0.00000000
Si      -2.71497285       2.71440270      -0.00061678       0.00000000
Si       2.71178001       0.00268785       2.71803440       0.00000000
Si       2.71456560       2.71526607      -0.00034266       0.00000000
Si       0.00133578      -2.71585251      -2.71457355       0.00000000
