10
Lattice="16.28999089631971 0.0 0.0 0.0 16.28999089631971 0.0 0.0 0.0 34.26581377546328" Properties=species:S:1:pos:R:3:initial_magmoms:R:1 pbc="T T T"
Si       2.29894254      -0.36075834      -0.28012318       0.00000000
Si      -0.13822065       0.52378866       2.28278983       0.00000000
Si      -0.95402385      -2.15480862       0.01182171       0.00000000
Si      -0.37191699       1.13824746      -2.15686285       0.00000000
Si       0.97627599       3.31993458       0.40306899       0.00000000
Si       2.14809714      -2.17263314      -1.81245697       0.00000000
Si       2.93180904       1.58522877      -1.54449815       0.00000000
Si      -1.98986911      -2.32101989      -2.09162071       0.00000000
Si       1.08957294       2.99740887      -1.98179871       0.00000000
Si       0.82557720      -3.69154925      -0.57607718       0.00000000
