10
Lattice="16.28999089631971 0.0 0.0 0.0 16.28999089631971 0.0 0.0 0.0 34.26581377546328" Properties=species:S:1:pos:R:3:initial_magmoms:R:1 pbc="T T T"
Si      -1.38738672       1.79657523      -0.84643460       0.00000000
Si       0.19411164       0.62639937       2.35426832       0.00000000
Si       2.07945108       0.60427755      -1.15044107       0.00000000
Si      -0.99790911      -2.13732945      -0.80994149       0.00000000
Si      -0.78364674      -1.19667969       3.42863924       0.00000000
Si       2.63440251      -1.85512149       1.96805811       0.00000000
Si       3.69875853      -0.87793326      -0.09926812       0.00000000
Si      -3.58345791       1.16434404      -0.52344486       0.00000000
Si       2.36872890       2.94715422      -0.52594627       0.00000000
Si      -0.64392741       2.90284542       2.53090869       0.00000000
