10
Lattice="16.28999089631971 0.0 0.0 0.0 16.28999089631971 0.0 0.0 0.0 34.26581377546328" Properties=species:S:1:pos:R:3:initial_magmoms:R:1 pbc="T T T"
Si       1.60940313      -1.07294085       1.23898399       0.00000000
Si      -2.24798742      -0.64975923       0.08658976       0.00000000
Si       0.52178499      -0.08245998      -2.29738703       0.00000000
Si       0.12706200       2.32665183       0.51720848       0.00000000
Si       3.31962507       0.20924505       0.19027817       0.00000000
Si      -2.75872779       0.86439627      -1.72590147       0.00000000
Si      -0.81845847       1.75752810      -2.82871304       0.00000000
Si       2.79347436       0.48721761      -2.15960412       0.00000000
Si       0.92427831      -0.61638102       3.42709728       0.00000000
Si      -2.03735772       2.86656759       1.20173703       0.00000000
