10
Lattice="16.28999089631971 0.0 0.0 0.0 16.28999089631971 0.0 0.0 0.0 34.26581377546328" Properties=species:S:1:pos:R:3:initial_magmoms:R:1 pbc="T T T"
Si       0.68512482      -0.45655983      -2.18811329       0.00000000
Si       2.18132874      -0.00767259       0.95163071       0.00000000
Si      -0.70345107      -2.19612006       0.70337475       0.00000000
Si      -1.47012363       1.86689916       0.48318251       0.00000000
Si       0.94605804       0.70913628       2.80051333       0.00000000
Si       1.19855304      -3.38348187      -0.07737225       0.00000000
Si      -0.92427831       0.61638102      -3.42709728       0.00000000
Si       0.70957611      -2.78453115      -2.34104171       0.00000000
Si      -0.81643851       2.44680687       2.73708350       0.00000000
Si      -1.80069660      -1.96395498       2.76802760       0.00000000
