10
Lattice="16.28999089631971 0.0 0.0 0.0 16.28999089631971 0.0 0.0 0.0 34.26581377546328" Properties=species:S:1:pos:R:3:initial_magmoms:R:1 pbc="T T T"
Si      -1.36144164      -1.35531171       1.38822882       0.00000000
Si       1.34850249       1.36381509       1.39354003       0.00000000
Si      -1.48445883       1.33472115      -1.41387337       0.00000000
Si       1.49753970      -1.34794863      -1.49599487       0.00000000
Si      -0.20064393      -2.49671943      -2.61372715       0.00000000
Si       2.70575271       2.70327663       0.03612647       0.00000000
Si       2.71839375      -2.71257822       0.01253444       0.00000000
Si      -2.72990260      -2.70777267       0.00855618       0.00000000
Si      -2.72524274       2.71787247       0.03850452       0.00000000
Si       2.70821250       0.00358380       2.75187191       0.00000000
