10
Lattice="16.28999089631971 0.0 0.0 0.0 16.28999089631971 0.0 0.0 0.0 34.26581377546328" Properties=species:S:1:pos:R:3:initial_magmoms:R:1 pbc="T T T"
Si       1.35332433      -1.35588186      -1.36107315       0.00000000
Si      -1.35967743       1.36059686      -1.35894867       0.00000000
Si      -1.36718712      -1.35164646       1.37865152       0.00000000
Si       1.36238157       1.36697439       1.36861163       0.00000000
Si      -0.11150505       2.63589209       2.75744011       0.00000000
Si       2.70767493       2.71872674      -0.00380351       0.00000000
Si       2.71366965      -2.71397916      -0.00428323       0.00000000
Si       2.71158453       0.00231934      -2.71707496       0.00000000
Si      -0.00280188      -2.71259451      -2.71741761       0.00000000
Si       0.07154568      -2.69716788       2.73263164       0.00000000
