10
Lattice="16.28999089631971 0.0 0.0 0.0 16.28999089631971 0.0 0.0 0.0 34.26581377546328" Properties=species:S:1:pos:R:3:initial_magmoms:R:1 pbc="T T T"
Si       2.17344438       0.76637934      -0.18085507       0.00000000
Si      -0.28015542      -1.95041799       1.30532264       0.00000000
Si      -0.77167359       1.88636571       1.27163933       0.00000000
Si      -0.73124181       0.21434382      -2.29673598       0.00000000
Si       1.63786176       2.53102617      -1.70349162       0.00000000
Si      -0.68246955       2.57114844      -2.25376663       0.00000000
Si      -2.90680389       1.06026723       1.95397486       0.00000000
Si       3.15369513       0.27350910       1.94760141       0.00000000
Si       0.73278936      -3.69564714       0.11472201       0.00000000
Si      -2.55184479      -2.52009558       1.16753973       0.00000000
