10
Lattice="16.28999089631971 0.0 0.0 0.0 16.28999089631971 0.0 0.0 0.0 34.26581377546328" Properties=species:S:1:pos:R:3:initial_magmoms:R:1 pbc="T T T"
Si      -1.35729147       1.35736425      -1.35548782       0.00000000
Si       1.35780912       1.35615879       1.35798922       0.00000000
Si      -1.35724260      -1.35842310       1.35792069       0.00000000
Si       1.36001315      -1.36016613      -1.36360882       0.00000000
Si      -2.71327107       2.71254564       0.00082238       0.00000000
Si      -0.00378795       2.71301805      -2.71333313       0.00000000
Si      -2.71473717      -0.00363267      -2.71242508       0.00000000
Si       0.00038038       2.71340901       2.71471061       0.00000000
Si      -2.71426476      -0.00138465       2.71464208       0.00000000
Si       2.71559039       2.71337643       0.00154196       0.00000000
