10
Lattice="16.28999089631971 0.0 0.0 0.0 16.28999089631971 0.0 0.0 0.0 34.26581377546328" Properties=species:S:1:pos:R:3:initial_magmoms:R:1 pbc="T T T"
Si       1.35800798       1.35648133      -1.35613887       0.00000000
Si       1.35547543      -1.35705471       1.35843468       0.00000000
Si      -1.35729909      -1.35911156      -1.35610460       0.00000000
Si      -1.36120869       1.35729583       1.35716684       0.00000000
Si      -0.00211770       2.70223081       2.71241480       0.00000000
Si      -2.71355562       2.71264012       0.00027413       0.00000000
Si      -0.00001629       2.71443202      -2.71354558       0.00000000
Si      -2.71552671      -0.00102138      -2.71330571       0.00000000
Si       0.00003258      -2.71594440      -2.71313439       0.00000000
Si       2.71560883      -0.00191733      -2.71351131       0.00000000
