10
Lattice="16.28999089631971 0.0 0.0 0.0 16.28999089631971 0.0 0.0 0.0 34.26581377546328" Properties=species:S:1:pos:R:3:initial_magmoms:R:1 pbc="T T T"
Si       0.25756119       2.21403906      -0.65845225       0.00000000
Si      -2.26823589      -0.41707287      -0.34776394       0.00000000
Si       1.42091154      -1.75396222      -0.72533915       0.00000000
Si       0.45978525       0.38102310       2.29539962       0.00000000
Si       2.66087376       1.16383905       1.85371303       0.00000000
Si      -3.01959585       1.26783441       1.07060168       0.00000000
Si      -1.86176781       2.99395539      -0.05431135       0.00000000
Si       2.42527149       2.57970069       0.01267836       0.00000000
Si      -2.40373611       0.08060292      -2.66358599       0.00000000
Si       0.79643439      -1.82795140       3.02526186       0.00000000
