10
Lattice="16.28999089631971 0.0 0.0 0.0 16.28999089631971 0.0 0.0 0.0 34.26581377546328" Properties=species:S:1:pos:R:3:initial_magmoms:R:1 pbc="T T T"
Si      -1.41323895      -1.76512480      -0.55407852       0.00000000
Si      -1.42091154       1.75396222       0.72533915       0.00000000
Si       0.96166386      -0.63702208       2.08336264       0.00000000
Si       1.85048277       0.13463848      -1.49498402       0.00000000
Si       3.24914543       1.17996778       0.09724643       0.00000000
Si       2.59810906       1.02343717       2.36177253       0.00000000
Si      -0.87765633      -3.52977163       0.96855803       0.00000000
Si      -0.68831766      -2.69945404      -2.57288433       0.00000000
Si      -0.62447715      -0.07398918       3.75060101       0.00000000
Si      -0.96112629       2.13498532       3.02073877       0.00000000
