10
Lattice="16.28999089631971 0.0 0.0 0.0 16.28999089631971 0.0 0.0 0.0 34.26581377546328" Properties=species:S:1:pos:R:3:initial_magmoms:R:1 pbc="T T T"
Si      -1.32655986       1.27545813       1.49268136       0.00000000
Si      -1.53999144      -1.18452735      -1.36810934       0.00000000
Si       0.93533922       1.68946848      -1.44020465       0.00000000
Si       1.37972949      -1.43353629       1.46182498       0.00000000
Si      -3.35173266       0.53885691      -1.30605391       0.00000000
Si      -2.60894124       2.54252691      -0.00205252       0.00000000
Si       2.62517327       2.60895753       0.03939543       0.00000000
Si      -2.57417838      -2.68002754       0.07210217       0.00000000
Si      -0.86017716       3.49534530      -1.24639710       0.00000000
Si       0.03088584       2.63645505       2.84961862       0.00000000
