10
Lattice="16.28999089631971 0.0 0.0 0.0 16.28999089631971 0.0 0.0 0.0 34.26581377546328" Properties=species:S:1:pos:R:3:initial_magmoms:R:1 pbc="T T T"
Si      -1.28238138       1.26706878      -1.49473388       0.00000000
Si      -1.35935163      -1.35402480       1.35727992       0.00000000
Si       1.35744570       1.36099692       1.35693726       0.00000000
Si       1.32655986      -1.27545813      -1.49268136       0.00000000
Si      -2.02517280      -0.73660122      -2.79873527       0.00000000
Si       0.46638270       2.21988717      -2.73907846       0.00000000
Si       2.26189908       0.41401035      -2.93288601       0.00000000
Si      -0.21343158      -2.45998548      -2.86079070       0.00000000
Si      -2.69830818       2.69904123      -0.02254349       0.00000000
Si       2.70628935      -2.70899442      -0.03085638       0.00000000
