10
Lattice="16.28999089631971 0.0 0.0 0.0 16.28999089631971 0.0 0.0 0.0 34.26581377546328" Properties=species:S:1:pos:R:3:initial_magmoms:R:1 pbc="T T T"
Si      -1.74974148      -0.98220555       1.12409065       0.00000000
Si       1.00274724       1.87365951       0.94577125       0.00000000
Si       1.61577252      -1.55448954      -0.70752092       0.00000000
Si      -1.00383867       1.04917374      -1.87118860       0.00000000
Si       0.88767468       2.39888169      -2.16748526       0.00000000
Si       2.93487156       1.63240461      -0.31157922       0.00000000
Si      -3.28377078       0.77196681       0.72657272       0.00000000
Si       0.91155582       1.15123059       3.12922439       0.00000000
Si       1.56972069      -0.96798438      -2.96067076       0.00000000
Si      -0.65850696      -0.71135172      -3.45036378       0.00000000
