10
Lattice="16.28999089631971 0.0 0.0 0.0 16.28999089631971 0.0 0.0 0.0 34.26581377546328" Properties=species:S:1:pos:R:3:initial_magmoms:R:1 pbc="T T T"
Si      -1.20011688      -2.01025116      -0.26155110       0.00000000
Si      -1.88216289       1.35661491       0.53163440       0.00000000
Si       1.38849837       2.03587533      -0.01744131       0.00000000
Si       0.16503399       0.59013783       2.38754044       0.00000000
Si      -0.05313798       0.84040110      -2.80945564       0.00000000
Si       2.75505344      -1.68047640       1.10092695       0.00000000
Si       0.99204701      -1.75798422       2.77906185       0.00000000
Si       1.65489037      -0.84742209      -2.88932930       0.00000000
Si      -1.15406505      -2.59675632       1.99159874       0.00000000
Si       2.31613568      -2.54039292      -1.21688252       0.00000000
