10
Lattice="16.28999089631971 0.0 0.0 0.0 16.28999089631971 0.0 0.0 0.0 34.26581377546328" Properties=species:S:1:pos:R:3:initial_magmoms:R:1 pbc="T T T"
Si      -2.16771030      -0.36566163      -0.67113060       0.00000000
Si       0.23560227      -1.41586164       1.84103467       0.00000000
Si       0.51189356       2.16937188       0.81628067       0.00000000
Si       1.43189330      -1.08224244      -1.57759895       0.00000000
Si      -2.42527149      -2.57970069      -0.01267836       0.00000000
Si       3.04991873       0.60426126      -1.69746083       0.00000000
Si      -2.07651888       0.35676729      -2.85458374       0.00000000
Si       2.48424848       2.55306654      -0.44213204       0.00000000
Si       1.45340750      -0.19000656       3.38717758       0.00000000
Si      -1.96548624      -2.19867759       2.28272126       0.00000000
