10
Lattice="16.28999089631971 0.0 0.0 0.0 16.28999089631971 0.0 0.0 0.0 34.26581377546328" Properties=species:S:1:pos:R:3:initial_magmoms:R:1 pbc="T T T"
Si      -1.35350352      -1.35565380       1.35784531       0.00000000
Si       1.36395585       1.35257499       1.35448726       0.00000000
Si      -1.27624005       1.29456630      -1.49221877       0.00000000
Si       1.24078391      -1.38315132      -1.45237789       0.00000000
Si       0.54278673       1.94471649      -2.90124151       0.00000000
Si       2.35330946       0.42560883      -2.63920654       0.00000000
Si      -2.24456652      -0.49676355      -2.73817041       0.00000000
Si      -0.44905014      -2.30264037      -2.93197796       0.00000000
Si      -2.69581581       2.71230129      -0.03174729       0.00000000
Si      -2.70948312      -0.00047241       2.71415551       0.00000000
