10
Lattice="16.28999089631971 0.0 0.0 0.0 16.28999089631971 0.0 0.0 0.0 34.26581377546328" Properties=species:S:1:pos:R:3:initial_magmoms:R:1 pbc="T T T"
Si      -1.34907264      -1.34754138      -1.39629843       0.00000000
Si       1.36853919       1.36658439      -1.39622989       0.00000000
Si       1.40693018      -1.43171181       1.41966772       0.00000000
Si      -1.54818531       1.39119858       1.49817075       0.00000000
Si       2.64890291       0.10199169       2.73355682       0.00000000
Si      -2.70511740      -2.69503389       0.00287833       0.00000000
Si      -2.69962767       2.72477943      -0.04711552       0.00000000
Si       2.70985032       2.73683403      -0.02388329       0.00000000
Si       2.73848325      -2.71016730      -0.03597912       0.00000000
Si      -2.70200601       0.00773775      -2.75829675       0.00000000
