10
Lattice="16.28999089631971 0.0 0.0 0.0 16.28999089631971 0.0 0.0 0.0 34.26581377546328" Properties=species:S:1:pos:R:3:initial_magmoms:R:1 pbc="T T T"
Si       1.53883878      -1.82011428       0.06630439       0.00000000
Si      -1.98325863      -0.22450878       1.31022265       0.00000000
Si       0.56971017       1.80750582      -1.46606366       0.00000000
Si      -0.13571199       0.67004028       2.58450045       0.00000000
Si       1.39683070      -1.18718262       2.49948692       0.00000000
Si      -1.73182248      -2.49937470       0.61538009       0.00000000
Si       2.11408592       0.40454586      -2.75370513       0.00000000
Si       1.06822394       2.75540463       2.15837055       0.00000000
Si      -3.60256608       1.25770203       0.25904970       0.00000000
Si       1.84695761       3.37155759      -0.09251775       0.00000000
