10
Lattice="16.28999089631971 0.0 0.0 0.0 16.28999089631971 0.0 0.0 0.0 34.26581377546328" Properties=species:S:1:pos:R:3:initial_magmoms:R:1 pbc="T T T"
Si       1.98325863       0.22450878      -1.31022265       0.00000000
Si       0.25143615      -2.27486592      -0.69484256       0.00000000
Si       1.84754664       0.89454906       1.27427779       0.00000000
Si      -1.61930745       1.48221081      -1.05117296       0.00000000
Si      -1.06435602      -0.97718823       2.06732623       0.00000000
Si       0.42363774       2.18440755       2.64885168       0.00000000
Si       3.38008933      -0.96267384       1.18926426       0.00000000
Si       0.36650871      -2.80008810       2.41841396       0.00000000
Si      -3.69875853       0.87793326       0.09926812       0.00000000
Si      -1.35392706       0.94266972       3.43391618       0.00000000
