10
Lattice="16.28999089631971 0.0 0.0 0.0 16.28999089631971 0.0 0.0 0.0 34.26581377546328" Properties=species:S:1:pos:R:3:initial_magmoms:R:1 pbc="T T T"
Si       1.31274255      -1.32178689       1.51982675       0.00000000
Si      -1.39387014      -1.27808082      -1.49414592       0.00000000
Si       1.88438063       0.91095309      -1.27371382       0.00000000
Si      -1.38044718       1.40481702       1.50859099       0.00000000
Si      -1.34890974       0.07421724      -3.38466046       0.00000000
Si       3.30518303      -1.02796416      -1.17290374       0.00000000
Si      -2.66748750      -2.58123195       0.11311151       0.00000000
Si       2.65974228       2.71432681       0.13964698       0.00000000
Si       2.53184297      -2.87399583       0.10793395       0.00000000
Si      -2.64002256       2.88263997       0.12387099       0.00000000
