10
Lattice="16.28999089631971 0.0 0.0 0.0 16.28999089631971 0.0 0.0 0.0 34.26581377546328" Properties=species:S:1:pos:R:3:initial_magmoms:R:1 pbc="T T T"
Si       0.96927129      -1.56905280      -1.62378929       0.00000000
Si      -1.45373589       1.18205127      -1.72035041       0.00000000
Si       1.61922600       1.77842817       0.89231656       0.00000000
Si      -1.38748446      -1.19130399       1.89065160       0.00000000
Si      -3.10505319       0.41023107       1.43978177       0.00000000
Si       0.40094577       2.71662044       2.65258666       0.00000000
Si      -1.94786046       2.58844095       2.04871988       0.00000000
Si       0.15050331       2.30498613      -3.13275378       0.00000000
Si       2.49551397      -2.98437687      -0.45895657       0.00000000
Si       2.64924270      -0.42156891      -2.97427430       0.00000000
