10
Lattice="16.28999089631971 0.0 0.0 0.0 16.28999089631971 0.0 0.0 0.0 34.26581377546328" Properties=species:S:1:pos:R:3:initial_magmoms:R:1 pbc="T T T"
Si       2.02561263      -1.08278001       0.19110055       0.00000000
Si      -0.29194938       1.63299335      -1.62683895       0.00000000
Si      -0.72492129       0.93432924       2.01880581       0.00000000
Si      -1.34737848      -1.92218742      -0.12620106       0.00000000
Si       1.70434125      -1.67930352       2.44572383       0.00000000
Si      -3.04525260       0.97445151       1.46853080       0.00000000
Si       0.92633085       0.69480108      -3.38710905       0.00000000
Si       3.54154604       0.76802463       0.27638821       0.00000000
Si      -0.18933867      -0.83031759       3.54144236       0.00000000
Si      -3.09402486      -1.38235311       1.42556145       0.00000000
