10
Lattice="16.28999089631971 0.0 0.0 0.0 16.28999089631971 0.0 0.0 0.0 34.26581377546328" Properties=species:S:1:pos:R:3:initial_magmoms:R:1 pbc="T T T"
Si      -1.31790987       1.76231736      -0.82676602       0.00000000
Si       1.44878373       0.47296386       1.79820238       0.00000000
Si      -1.51542612      -1.33398810       1.22291331       0.00000000
Si       1.15756740      -0.63299682      -1.96634482       0.00000000
Si      -0.23775255       0.57554199       3.39848531       0.00000000
Si       0.43049583       3.31565587      -1.31275833       0.00000000
Si      -1.75013244      -3.13489647      -0.25874130       0.00000000
Si      -2.67918372       2.18635976       1.06755202       0.00000000
Si      -3.43215639      -0.02313180       1.63478862       0.00000000
Si       0.49928850      -3.79407132      -0.09203803       0.00000000
