10
Lattice="16.28999089631971 0.0 0.0 0.0 16.28999089631971 0.0 0.0 0.0 34.26581377546328" Properties=species:S:1:pos:R:3:initial_magmoms:R:1 pbc="T T T"
Si       2.34530388      -0.45638064       0.23115731       0.00000000
Si      -0.33845733       1.60914249       1.79470727       0.00000000
Si      -1.08072747      -2.18922939       0.17036972       0.00000000
Si      -2.44728254       1.52712234      -0.94799853       0.00000000
Si      -0.55249164       2.10874050      -2.28546252       0.00000000
Si      -2.58929061       2.16005400       1.48518400       0.00000000
Si       2.44240857      -1.51071831       2.36972221       0.00000000
Si       3.39916914       1.70859294       0.44151526       0.00000000
Si      -0.47643363       0.57013371       3.87145660       0.00000000
Si      -3.67074692       0.08138484       1.45698322       0.00000000
