10
Lattice="16.28999089631971 0.0 0.0 0.0 16.28999089631971 0.0 0.0 0.0 34.26581377546328" Properties=species:S:1:pos:R:3:initial_magmoms:R:1 pbc="T T T"
Si       1.61802543       1.68650370      -0.11986188       0.00000000
Si      -1.43189330       1.08224244       1.57759895       0.00000000
Si       0.81289218      -2.07145269       0.93682787       0.00000000
Si      -0.74927484      -1.15036722      -2.14281386       0.00000000
Si      -1.57628786       1.19775483      -2.53433527       0.00000000
Si      -0.58577048      -3.11678199      -0.65540259       0.00000000
Si      -1.19629103      -0.33361920       3.41863362       0.00000000
Si      -3.59960360       0.71658081       0.90646834       0.00000000
Si       3.70935192       0.73653606       0.32545688       0.00000000
Si       0.16185581      -2.22798330       3.20135397       0.00000000
