10
Lattice="16.28999089631971 0.0 0.0 0.0 16.28999089631971 0.0 0.0 0.0 34.26581377546328" Properties=species:S:1:pos:R:3:initial_magmoms:R:1 pbc="T T T"
Si      -1.35613399      -1.35669745       1.35860601       0.00000000
Si       1.35944226       1.35732962       1.35822909       0.00000000
Si       1.36046039      -1.35607843      -1.35977105       0.00000000
Si      -1.35782815       1.35958090      -1.35956545       0.00000000
Si      -2.71296067      -2.71435492      -0.00010280       0.00000000
Si      -2.71346566       0.00013539       2.71563579       0.00000000
Si      -2.71488289       2.71475089       0.00106224       0.00000000
Si       0.00152216      -2.71424089       2.71549873       0.00000000
Si       2.71580305       2.71520701      -0.00017133       0.00000000
Si       0.00184141       2.71572829       2.71560153       0.00000000
