10
Lattice="16.28999089631971 0.0 0.0 0.0 16.28999089631971 0.0 0.0 0.0 34.26581377546328" Properties=species:S:1:pos:R:3:initial_magmoms:R:1 pbc="T T T"
Si      -1.81052273       1.51910766      -0.26203498       0.00000000
Si       1.84630860       0.95206905       1.21415908       0.00000000
Si       0.99584028      -0.57355461      -2.11982564       0.00000000
Si      -1.11252555      -1.80876015       1.18682865       0.00000000
Si       0.38779974       2.29210074       2.62237173       0.00000000
Si      -2.35330946      -0.42560883       2.63920654       0.00000000
Si       1.28578599      -2.84405481      -1.89274596       0.00000000
Si      -2.32937894       0.82021779      -2.69453219       0.00000000
Si      -1.14001167       3.43560987       1.20359835       0.00000000
Si      -0.21227499       0.59166909      -3.79991369       0.00000000
