10
Lattice="16.28999089631971 0.0 0.0 0.0 16.28999089631971 0.0 0.0 0.0 34.26581377546328" Properties=species:S:1:pos:R:3:initial_magmoms:R:1 pbc="T T T"
Si      -1.36805049       1.33175637       1.32266115       0.00000000
Si       1.36506942      -1.33770222       1.34925144       0.00000000
Si       1.37046141       1.34646624      -1.34421436       0.00000000
Si      -1.34532594      -1.37308410      -1.34688709       0.00000000
Si       0.02368566       2.56855833       2.68198674       0.00000000
Si       0.01137042       2.70273906      -2.70254624       0.00000000
Si      -2.70251915      -0.01200573      -2.70340289       0.00000000
Si      -2.69153480      -2.72877048       0.01805809       0.00000000
Si       0.01125639      -2.72658762      -2.70449940       0.00000000
Si       2.72777679      -0.01277136      -2.70408821       0.00000000
