10
Lattice="16.28999089631971 0.0 0.0 0.0 16.28999089631971 0.0 0.0 0.0 34.26581377546328" Properties=species:S:1:pos:R:3:initial_magmoms:R:1 pbc="T T T"
Si       1.35660676       1.35777150      -1.35744097       0.00000000
Si      -1.35837519      -1.35733167      -1.35781790       0.00000000
Si       1.35719321      -1.36107837       1.35651579       0.00000000
Si      -1.35895971       1.35998694       1.36121021       0.00000000
Si       2.70251915       0.01200573       2.70340289       0.00000000
Si       2.71377553      -2.71458189      -0.00109651       0.00000000
Si       2.71388956       2.71474479       0.00085665       0.00000000
Si       2.71431310       0.00003258      -2.71443649       0.00000000
Si      -0.00094645      -2.71458189      -2.71453928       0.00000000
Si      -0.00063205       2.71538010      -2.71474488       0.00000000
