10
Lattice="16.28999089631971 0.0 0.0 0.0 16.28999089631971 0.0 0.0 0.0 34.26581377546328" Properties=species:S:1:pos:R:3:initial_magmoms:R:1 pbc="T T T"
Si      -1.40766777       1.75593168       0.70231251       0.00000000
Si       2.17948797       0.73449981       0.61030875       0.00000000
Si      -0.85201587      -2.22011523       0.22639436       0.00000000
Si       0.01373247      -0.00987174      -2.52114292       0.00000000
Si       2.52483597       1.33574742      -1.69656992       0.00000000
Si      -3.10284915      -1.66920372      -0.08312891       0.00000000
Si      -2.15863514       0.81032976       2.71066725       0.00000000
Si       3.15493317      -1.31121468       1.25741901       0.00000000
Si       0.06745689       3.51590328       1.29278134       0.00000000
Si       2.88561060      -2.12066478      -1.12679765       0.00000000
