10
Lattice="16.28999089631971 0.0 0.0 0.0 16.28999089631971 0.0 0.0 0.0 34.26581377546328" Properties=species:S:1:pos:R:3:initial_magmoms:R:1 pbc="T T T"
Si      -0.47197017       2.12766948      -1.03870019       0.00000000
Si      -1.88856486      -1.36593279      -0.63131371       0.00000000
Si      -0.02795364       0.00408879       2.42067550       0.00000000
Si       1.94227299      -1.15059528      -0.96605663       0.00000000
Si       1.31830083      -3.35368746      -0.43421663       0.00000000
Si      -1.08595004      -3.53598885      -0.40505641       0.00000000
Si       1.28029626       1.86038316       3.01354294       0.00000000
Si      -2.02746399      -1.17661041      -2.97595332       0.00000000
Si      -2.84241671       2.26927845      -1.32876047       0.00000000
Si       2.05907229      -0.41205555      -3.26340940       0.00000000
