10
Lattice="16.28999089631971 0.0 0.0 0.0 16.28999089631971 0.0 0.0 0.0 34.26581377546328" Properties=species:S:1:pos:R:3:initial_magmoms:R:1 pbc="T T T"
Si      -1.02126948       1.81912059      -1.00145323       0.00000000
Si       2.11710395      -0.22854870      -1.10538150       0.00000000
Si      -1.57470594      -1.65859893      -0.93412087       0.00000000
Si       0.51885621       0.69888987       2.43249721       0.00000000
Si      -3.39962577      -1.17889101       0.57114290       0.00000000
Si       3.32521922      -1.39377240       0.57470655       0.00000000
Si       2.32937894      -0.82021779       2.69453219       0.00000000
Si       0.37268278       3.68131194      -0.56336456       0.00000000
Si       3.42535385       1.62774567      -0.51251406       0.00000000
Si      -1.95434439       1.19399184      -3.08498720       0.00000000
