10
Lattice="16.28999089631971 0.0 0.0 0.0 16.28999089631971 0.0 0.0 0.0 34.26581377546328" Properties=species:S:1:pos:R:3:initial_magmoms:R:1 pbc="T T T"
Si      -1.35845436      -1.35676152       1.35665286       0.00000000
Si      -1.35765615       1.35754344      -1.35689272       0.00000000
Si       1.35766109      -1.35752715      -1.35744097       0.00000000
Si       1.35829152       1.35840681       1.35754377       0.00000000
Si      -2.71290270      -0.00192222       2.71292879       0.00000000
Si      -2.71498782       2.71437628       0.00013706       0.00000000
Si      -0.00070085      -2.71453302      -2.71501901       0.00000000
Si      -0.00152216       2.71424089      -2.71549873       0.00000000
Si      -2.71549281      -2.71446786       0.00006853       0.00000000
Si       2.71512797       2.71489683      -0.00030839       0.00000000
