10
Lattice="16.28999089631971 0.0 0.0 0.0 16.28999089631971 0.0 0.0 0.0 34.26581377546328" Properties=species:S:1:pos:R:3:initial_magmoms:R:1 pbc="T T T"
Si       1.34071587       1.35975281      -1.38327741       0.00000000
Si      -1.37779191      -1.35135324      -1.38338021       0.00000000
Si      -1.31435865       1.39639234       1.44176919       0.00000000
Si       1.42928460      -1.33810947       1.53394428       0.00000000
Si       2.70143586      -2.71161711       0.00164476       0.00000000
Si      -2.70641083       2.71521298      -0.02823505       0.00000000
Si       2.69878059       2.72507332       0.01343221       0.00000000
Si       2.69806383       0.00353493      -2.74599532       0.00000000
Si      -2.74878926      -2.69596242      -0.01202731       0.00000000
Si      -0.01725111      -2.71145421      -2.74472748       0.00000000
