10
Lattice="16.28999089631971 0.0 0.0 0.0 16.28999089631971 0.0 0.0 0.0 34.26581377546328" Properties=species:S:1:pos:R:3:initial_magmoms:R:1 pbc="T T T"
Si       1.35683645       1.35649002      -1.35785216       0.00000000
Si       1.35335039      -1.35646830       1.36196406       0.00000000
Si      -1.35829152      -1.35840681      -1.35754377       0.00000000
Si      -1.36050482       1.35802632       1.35713258       0.00000000
Si      -2.70645059      -0.02094894       2.71659523       0.00000000
Si       0.02473148       2.71009792       2.71710922       0.00000000
Si      -0.00037141       2.71316370      -2.71481341       0.00000000
Si       2.71367942      -0.00060273      -2.71512180       0.00000000
Si      -2.71594766      -0.00086337      -2.71443649       0.00000000
Si       2.71389119      -2.71656927       0.00061678       0.00000000
