10
Lattice="16.28999089631971 0.0 0.0 0.0 16.28999089631971 0.0 0.0 0.0 34.51530692428229" Properties=species:S:1:pos:R:3:initial_magmoms:R:1 pbc="T T T"
Si       1.32015463       1.73977200      -0.67487817       0.00000000
Si       0.66885925      -1.75184289      -1.36342442       0.00000000
Si      -2.27295414       0.18730242      -0.42767941       0.00000000
Si       0.33668498      -0.50466420       2.30821244       0.00000000
Si      -2.78719686      -2.10950613      -0.45667228       0.00000000
Si       0.44881882       3.53248554       0.63439170       0.00000000
Si       0.76820219       2.00409354      -3.01708821       0.00000000
Si       3.53585527       1.10534166       0.04873564       0.00000000
Si      -3.06689616       1.94662242       1.00663949       0.00000000
Si       2.52607075      -2.80440495      -0.47413704       0.00000000
