10
Lattice="16.28999089631971 0.0 0.0 0.0 16.28999089631971 0.0 0.0 0.0 34.51530692428229" Properties=species:S:1:pos:R:3:initial_magmoms:R:1 pbc="T T T"
Si      -1.73309310      -0.82223775      -1.45489003       0.00000000
Si       1.91291841      -1.62160434      -0.09032661       0.00000000
Si       1.02224637       1.92559203      -1.33322351       0.00000000
Si       0.33870168       2.44211535       1.07311601       0.00000000
Si      -0.88604568      -1.15261524       2.31577130       0.00000000
Si       1.42842123      -1.93024771       2.26655244       0.00000000
Si      -0.23038947      -2.08021182      -2.79460242       0.00000000
Si       1.03954635       1.29898089       3.39572134       0.00000000
Si       2.48507208       0.65901195      -2.79598303       0.00000000
Si      -3.26552598      -1.99115439       0.04283352       0.00000000
