10
Lattice="16.28999089631971 0.0 0.0 0.0 16.28999089631971 0.0 0.0 0.0 34.51530692428229" Properties=species:S:1:pos:R:3:initial_magmoms:R:1 pbc="T T T"
Si      -1.22036535       1.49576409      -1.34468259       0.00000000
Si       1.50270363      -1.25797407      -1.33971239       0.00000000
Si       1.73309310       0.82223775       1.45489003       0.00000000
Si      -1.53243288      -1.16891664       1.49772355       0.00000000
Si      -2.98054872       0.88378137       1.05437419       0.00000000
Si      -2.56787415       0.12386916      -2.71804742       0.00000000
Si       0.14766885      -2.58651710      -2.71873773       0.00000000
Si      -2.73722499      -2.72279924       0.13640457       0.00000000
Si       0.84704742      -0.33037749       3.77066133       0.00000000
Si      -2.44652994       3.00996846       0.23694771       0.00000000
