10
Lattice="16.28999089631971 0.0 0.0 0.0 16.28999089631971 0.0 0.0 0.0 34.51530692428229" Properties=species:S:1:pos:R:3:initial_magmoms:R:1 pbc="T T T"
Si       2.19480057      -0.27552091      -0.82305247       0.00000000
Si      -1.89609084      -1.38705833      -0.42478012       0.00000000
Si      -0.81764397       2.18275574      -0.56884709       0.00000000
Si       0.46695285       0.05037520       2.35308236       0.00000000
Si       0.45985041       3.21782234       1.06086307       0.00000000
Si      -3.51978030      -0.03086955       0.65413446       0.00000000
Si       3.22801011      -1.55510597       0.80703736       0.00000000
Si      -0.19433970       2.16879521       3.05774726       0.00000000
Si      -1.75053969      -2.03294054      -2.73775568       0.00000000
Si      -3.10695912       2.25741281       0.03920941       0.00000000
