10
Lattice="16.28999089631971 0.0 0.0 0.0 16.28999089631971 0.0 0.0 0.0 34.51530692428229" Properties=species:S:1:pos:R:3:initial_magmoms:R:1 pbc="T T T"
Si      -1.20479211      -1.55388259      -1.36131898       0.00000000
Si       1.53243288       1.16891664      -1.49772355       0.00000000
Si       0.22732695      -0.52577441       2.41738442       0.00000000
Si      -1.44811584       2.05269801      -0.44334937       0.00000000
Si       2.37948030       0.83853915       2.27293778       0.00000000
Si      -2.38688573      -0.07277069      -2.85068982       0.00000000
Si      -1.97074791       0.19684836       3.22732106       0.00000000
Si      -2.99461513      -2.36356075       0.08466610       0.00000000
Si       3.26552598       1.99115439      -0.04283352       0.00000000
Si       0.31206753       2.66468073      -2.84240614       0.00000000
