10
Lattice="16.28999089631971 0.0 0.0 0.0 16.28999089631971 0.0 0.0 0.0 34.51530692428229" Properties=species:S:1:pos:R:3:initial_magmoms:R:1 pbc="T T T"
Si       0.66129255      -2.11842002      -0.70466490       0.00000000
Si       1.51133733       0.09150093       1.79431375       0.00000000
Si       0.65419011       1.04902713      -1.99688420       0.00000000
Si      -2.13130215       1.02713337       0.61126643       0.00000000
Si       2.37840516       2.12630112       1.12161004       0.00000000
Si      -0.06812478       0.70890822       3.38091426       0.00000000
Si      -0.86249034      -3.39875279       0.49277531       0.00000000
Si      -0.62330427       0.01396053      -3.62659436       0.00000000
Si       0.19433970      -2.16879521      -3.05774726       0.00000000
Si      -1.54406394       2.33197866       2.54219184       0.00000000
