10
Lattice="16.28999089631971 0.0 0.0 0.0 16.28999089631971 0.0 0.0 0.0 34.51530692428229" Properties=species:S:1:pos:R:3:initial_magmoms:R:1 pbc="T T T"
Si      -1.35505107       1.35583299       1.35690102       0.00000000
Si      -1.35681039      -1.35795069      -1.35786745       0.00000000
Si       1.35811359       1.35729909      -1.35755681       0.00000000
Si       1.35990549      -1.35645201       1.36173317       0.00000000
Si      -2.71334385      -2.71441247      -0.00124255       0.00000000
Si       2.71353933      -2.71531657      -0.00010355       0.00000000
Si       2.71518462       2.71414206      -0.00072482       0.00000000
Si      -2.71531494       2.71404432       0.00203640       0.00000000
Si       0.00034209       2.71469592      -2.71514814       0.00000000
Si      -2.71524978       0.00011403      -2.71463041       0.00000000
