10
Lattice="16.28999089631971 0.0 0.0 0.0 16.28999089631971 0.0 0.0 0.0 34.51530692428229" Properties=species:S:1:pos:R:3:initial_magmoms:R:1 pbc="T T T"
Si      -1.35720135       1.35738054       1.35814357       0.00000000
Si      -1.35703845      -1.35702216      -1.35921355       0.00000000
Si       1.36026387      -1.35821133       1.35486462       0.00000000
Si       1.35809730       1.35840681      -1.35921355       0.00000000
Si       0.01453068       2.69685837       2.73019682       0.00000000
Si       2.71409319       2.71383255      -0.00072482       0.00000000
Si       2.71531494      -2.71404432      -0.00203640       0.00000000
Si      -0.00998577      -2.70093087       2.72891975       0.00000000
Si      -2.71435057      -2.71585251      -0.00176028       0.00000000
Si       0.00006516      -2.71393029      -2.71666681       0.00000000
