10
Lattice="16.28999089631971 0.0 0.0 0.0 16.28999089631971 0.0 0.0 0.0 34.51530692428229" Properties=species:S:1:pos:R:3:initial_magmoms:R:1 pbc="T T T"
Si       1.35505107      -1.35583299      -1.35690102       0.00000000
Si      -1.36026387       1.35821133      -1.35486462       0.00000000
Si      -1.37024964      -1.34271954       1.37405514       0.00000000
Si       1.34433225       1.36384767       1.39459176       0.00000000
Si       2.71495656      -2.71228500       0.00483215       0.00000000
Si       2.71316466       0.00146610      -2.71445783       0.00000000
Si      -0.00175932      -2.71378368      -2.71476847       0.00000000
Si      -0.00216657       2.71661814      -2.71407816       0.00000000
Si      -2.71730232       0.00118917      -2.71407816       0.00000000
Si      -2.71775844      -2.71461447       0.00069031       0.00000000
