10
Lattice="16.28999089631971 0.0 0.0 0.0 16.28999089631971 0.0 0.0 0.0 34.51530692428229" Properties=species:S:1:pos:R:3:initial_magmoms:R:1 pbc="T T T"
Si      -1.31947371      -1.24225911      -1.58960335       0.00000000
Si       1.62149031      -1.37668419       1.24586521       0.00000000
Si       1.42938234       1.40814018      -1.67544297       0.00000000
Si      -1.10556972      -1.73610675       2.54215732       0.00000000
Si      -2.84514624       1.66993677       1.21383499       0.00000000
Si      -2.58698232      -2.52960894      -0.02139950       0.00000000
Si       0.64785330      -3.57154992       0.66562807       0.00000000
Si       0.07027506      -2.63357172      -3.18652395       0.00000000
Si      -2.61979038       0.05765031      -3.20578350       0.00000000
Si       3.41935245       2.25934155      -0.60912648       0.00000000
