10
Lattice="16.28999089631971 0.0 0.0 0.0 16.28999089631971 0.0 0.0 0.0 34.51530692428229" Properties=species:S:1:pos:R:3:initial_magmoms:R:1 pbc="T T T"
Si       2.23940259      -0.68963715       0.10651430       0.00000000
Si      -1.07823510       0.10801899       2.09904956       0.00000000
Si       0.37893798       2.34654192      -0.03917490       0.00000000
Si      -1.02758949      -1.05407703      -1.94600861       0.00000000
Si       2.94221835       0.53299251      -1.74716581       0.00000000
Si      -1.79610282      -2.05006392       2.37693245       0.00000000
Si      -2.90768355       1.47377259       1.60592910       0.00000000
Si      -3.08618937       1.86948927      -0.69914245       0.00000000
Si       1.19744532       2.88091908       2.12586797       0.00000000
Si       2.17342809       2.74364325      -1.44018650       0.00000000
