10
Lattice="16.28999089631971 0.0 0.0 0.0 16.28999089631971 0.0 0.0 0.0 34.51530692428229" Properties=species:S:1:pos:R:3:initial_magmoms:R:1 pbc="T T T"
Si       1.62368946      -1.35618878      -1.07891458       0.00000000
Si       0.41282118       2.28828236      -0.61492505       0.00000000
Si       0.25813134      -0.24916207       2.38839154       0.00000000
Si      -2.12411012      -0.71929586      -0.91662352       0.00000000
Si      -2.99259422       1.42828439      -1.01088487       0.00000000
Si       3.51978030       0.03086955      -0.65413446       0.00000000
Si      -1.26080690       2.45333264      -2.28591554       0.00000000
Si       1.03741236      -3.46580894      -0.18634825       0.00000000
Si       2.70213633       2.21362529      -1.22298155       0.00000000
Si      -1.17183581      -1.93189367       3.06299359       0.00000000
