10
Lattice="16.28999089631971 0.0 0.0 0.0 16.28999089631971 0.0 0.0 0.0 34.51530692428229" Properties=species:S:1:pos:R:3:initial_magmoms:R:1 pbc="T T T"
Si       0.94612320       1.89289800       0.87085620       0.00000000
Si       1.36485765      -0.86783346      -1.64096215       0.00000000
Si      -1.99233216       0.77825475      -1.01123003       0.00000000
Si       0.64027845      -1.68396246       1.54000482       0.00000000
Si      -3.05274600      -1.12749606      -0.21723946       0.00000000
Si       0.26966466      -2.87396325      -2.09442451       0.00000000
Si       1.00949130       3.39931811      -0.97333220       0.00000000
Si      -2.00370258      -2.37135159      -1.99236269       0.00000000
Si       3.51590328      -1.04378175      -0.70815095       0.00000000
Si       2.96285778       1.25817444       1.90521149       0.00000000
