10
Lattice="16.28999089631971 0.0 0.0 0.0 16.28999089631971 0.0 0.0 0.0 34.51530692428229" Properties=species:S:1:pos:R:3:initial_magmoms:R:1 pbc="T T T"
Si       1.24600581       1.80612117      -0.88838998       0.00000000
Si      -2.21570064       0.63443034      -0.72361381       0.00000000
Si       0.27272718      -0.20577528       2.40202510       0.00000000
Si       0.61561539      -2.24986077      -0.70784031       0.00000000
Si      -3.53585527      -1.10534166      -0.04873564       0.00000000
Si       0.86713299       1.63155753      -3.23242933       0.00000000
Si       0.46543788       3.76752581       0.18044613       0.00000000
Si      -0.97974576      -2.08612998       3.08591177       0.00000000
Si       3.50148663       1.65959262      -0.22393544       0.00000000
Si       2.56350843      -0.72451404       2.89497299       0.00000000
