10
Lattice="16.28999089631971 0.0 0.0 0.0 16.28999089631971 0.0 0.0 0.0 34.51530692428229" Properties=species:S:1:pos:R:3:initial_magmoms:R:1 pbc="T T T"
Si      -1.35674523      -1.35801585      -1.35700457       0.00000000
Si       1.35883035       1.35668007      -1.35721166       0.00000000
Si      -1.35948195       1.35795069       1.35890291       0.00000000
Si       1.36088289      -1.36086660       1.36342442       0.00000000
Si      -2.71391400       2.71340901      -0.00075934       0.00000000
Si      -2.71358820      -0.00074934      -2.71483750       0.00000000
Si       0.00115659       2.71419093      -2.71511362       0.00000000
Si       2.71595025      -0.00045612      -2.71483750       0.00000000
Si       0.00092853      -2.71583622      -2.71532071       0.00000000
Si      -2.71555929      -2.71604962      -0.00013806       0.00000000
