10
Lattice="16.28999089631971 0.0 0.0 0.0 16.28999089631971 0.0 0.0 0.0 34.51530692428229" Properties=species:S:1:pos:R:3:initial_magmoms:R:1 pbc="T T T"
Si      -1.46645838      -1.83886570       0.26266163       0.00000000
Si      -0.05936076       0.72591498      -2.26096096       0.00000000
Si      -0.94014477       1.60018299       1.49123467       0.00000000
Si       2.24352396      -0.35030016       0.77345395       0.00000000
Si      -0.99675252       3.25563795      -0.17040217       0.00000000
Si       1.78875603      -2.33461243       1.87866921       0.00000000
Si      -1.46566017      -2.79949256      -1.84377421       0.00000000
Si      -1.84943628       2.32442010      -2.14623201       0.00000000
Si      -0.43324884      -3.11845076       1.89275146       0.00000000
Si      -1.46056140      -0.90480850      -3.27540091       0.00000000
