10
Lattice="16.28999089631971 0.0 0.0 0.0 16.28999089631971 0.0 0.0 0.0 34.51530692428229" Properties=species:S:1:pos:R:3:initial_magmoms:R:1 pbc="T T T"
Si      -0.00509877      -1.89468405       1.43162670       0.00000000
Si       1.40120064       1.63072348       1.01443995       0.00000000
Si       0.48449718       0.30864337      -2.35687905       0.00000000
Si      -2.31446691       0.77763247       0.04921886       0.00000000
Si      -1.42842123       1.93024771      -2.26655244       0.00000000
Si      -0.38887488       3.22922860       1.12916890       0.00000000
Si      -0.00589698      -0.93405720       3.53806254       0.00000000
Si       1.46056140       0.90480850       3.27540091       0.00000000
Si      -0.32198814      -1.59569739      -3.50023375       0.00000000
Si      -2.58789456       2.53885840       1.66512288       0.00000000
