10
Lattice="16.28999089631971 0.0 0.0 0.0 16.28999089631971 0.0 0.0 0.0 34.51530692428229" Properties=species:S:1:pos:R:3:initial_magmoms:R:1 pbc="T T T"
Si      -0.05660775       1.65545496      -1.66163683       0.00000000
Si      -2.26126377       0.05429457       0.65534250       0.00000000
Si       0.94014477      -1.60018299      -1.49123467       0.00000000
Si       1.03353534       0.80602920       1.99125820       0.00000000
Si      -2.74255182       2.33891820       0.62151748       0.00000000
Si      -0.52631361      -3.43904869      -1.22857304       0.00000000
Si       2.12353182       2.45666232      -1.84625931       0.00000000
Si      -3.53875815      -0.98077203      -0.97436766       0.00000000
Si       3.18366873      -1.95048315      -0.71778072       0.00000000
Si      -0.90929151       0.72423711      -3.63746668       0.00000000
