10
Lattice="16.28999089631971 0.0 0.0 0.0 16.28999089631971 0.0 0.0 0.0 34.51530692428229" Properties=species:S:1:pos:R:3:initial_magmoms:R:1 pbc="T T T"
Si       1.70772957       1.54168560      -0.64453920       0.00000000
Si       0.28474920      -0.26586909       2.37399865       0.00000000
Si       0.77172246      -1.93427460      -1.27102689       0.00000000
Si      -2.43244628       0.44248527      -0.28744364       0.00000000
Si       0.75290751       2.38456278      -2.64073309       0.00000000
Si      -0.65824469      -3.61700621      -0.59642484       0.00000000
Si       2.57484627      -0.74823228       2.64984514       0.00000000
Si      -0.97762806      -2.08861420       3.05505507       0.00000000
Si      -1.54297577       2.65551435      -2.33710177       0.00000000
Si       2.29496778       2.84653089       1.28638621       0.00000000
