10
Lattice="16.28999089631971 0.0 0.0 0.0 16.28999089631971 0.0 0.0 0.0 34.51530692428229" Properties=species:S:1:pos:R:3:initial_magmoms:R:1 pbc="T T T"
Si       1.35707103       1.35684297       1.35683199       0.00000000
Si       1.35739683      -1.35731538      -1.35724617       0.00000000
Si      -1.35777150       1.35739683      -1.35759133       0.00000000
Si      -1.35811359      -1.35729909       1.35755681       0.00000000
Si      -2.71316466      -0.00146610       2.71445783       0.00000000
Si       2.71150308       0.00138465       2.71649423       0.00000000
Si       2.71423980      -2.71458189       0.00058676       0.00000000
Si       2.71469592       2.71497285       0.00013806       0.00000000
Si       2.71575477      -0.00066789      -2.71400913       0.00000000
Si      -2.71492398      -2.71524978      -0.00031064       0.00000000
