10
Lattice="16.28999089631971 0.0 0.0 0.0 16.28999089631971 0.0 0.0 0.0 34.51530692428229" Properties=species:S:1:pos:R:3:initial_magmoms:R:1 pbc="T T T"
Si       1.00035261       1.55452212       1.54383603       0.00000000
Si       1.39994631      -1.29275811      -1.47418410       0.00000000
Si      -1.32901965       1.41167511      -1.46890325       0.00000000
Si      -1.10144835      -1.69285680       1.44066972       0.00000000
Si      -0.39664521       0.91789263       3.62193479       0.00000000
Si       2.67240708      -2.65944024       0.02616262       0.00000000
Si       2.65657320       2.67688683      -0.07348313       0.00000000
Si      -0.69480108       3.59984565       1.11529374       0.00000000
Si      -2.68477119       2.74864428       0.04897725       0.00000000
Si      -2.49266322      -0.03618009       2.97028543       0.00000000
