10
Lattice="16.28999089631971 0.0 0.0 0.0 16.28999089631971 0.0 0.0 0.0 34.51530692428229" Properties=species:S:1:pos:R:3:initial_magmoms:R:1 pbc="T T T"
Si       1.16730882       1.64488275      -1.20610943       0.00000000
Si      -1.21671639       1.48388868       1.43002174       0.00000000
Si       1.50117237      -1.23613407       1.41355793       0.00000000
Si      -1.69748316      -1.05850791      -1.37227902       0.00000000
Si       0.93151107       0.56422044      -3.25909384       0.00000000
Si      -3.25286865       0.83826711      -1.54223248       0.00000000
Si      -2.59895547       2.74602159      -0.07233377       0.00000000
Si      -2.68742646      -2.67789681       0.06550664       0.00000000
Si      -2.57725719       0.13115079       2.80802543       0.00000000
Si       0.13763421      -2.58756876       2.80567839       0.00000000
