10
Lattice="16.28999089631971 0.0 0.0 0.0 16.28999089631971 0.0 0.0 0.0 34.51530692428229" Properties=species:S:1:pos:R:3:initial_magmoms:R:1 pbc="T T T"
Si       1.38520386      -1.68979428       0.87199520       0.00000000
Si      -2.09601801      -0.95407272      -0.65164936       0.00000000
Si      -0.48487185       2.06140176       1.18356505       0.00000000
Si       1.39699782       0.63662949      -2.07809876       0.00000000
Si      -0.70480314      -2.61074943      -2.18126507       0.00000000
Si       3.54509496      -0.14258637      -0.91586418       0.00000000
Si      -0.29815587       2.68195302      -2.50664105       0.00000000
Si       1.52870247       2.47215411       2.34621381       0.00000000
Si       0.39664521      -0.91789263      -3.62193479       0.00000000
Si      -0.62551971       3.83377005      -0.42809359       0.00000000
