10
Lattice="16.28999089631971 0.0 0.0 0.0 16.28999089631971 0.0 0.0 0.0 34.51530692428229" Properties=species:S:1:pos:R:3:initial_magmoms:R:1 pbc="T T T"
Si       0.76071042      -1.71142740       1.34623578       0.00000000
Si       0.53657631       0.46779993      -2.26517183       0.00000000
Si      -2.36586186      -0.13786227       0.16284331       0.00000000
Si       0.73275678       1.67988996       1.54138544       0.00000000
Si       3.08423457      -1.26201888       1.53420625       0.00000000
Si      -1.38987909      -0.27513810      -3.40321116       0.00000000
Si      -3.07620360       2.03594049       0.75567855       0.00000000
Si       0.29740653      -3.75650658      -0.08901503       0.00000000
Si       3.05106813       1.16291052       1.93713817       0.00000000
Si      -3.18436920      -0.67223943      -2.00219956       0.00000000
