10
Lattice="16.28999089631971 0.0 0.0 0.0 16.28999089631971 0.0 0.0 0.0 34.51530692428229" Properties=species:S:1:pos:R:3:initial_magmoms:R:1 pbc="T T T"
Si       1.36137159       1.35162654      -1.37415868       0.00000000
Si      -1.35350352      -1.36565586      -1.37150100       0.00000000
Si       1.39606929      -1.40703246       1.33660601       0.00000000
Si      -1.37477826       1.23505893       1.56130078       0.00000000
Si      -2.71160082       2.68079221       0.00037967       0.00000000
Si       2.71593396       2.70513925       0.02029501       0.00000000
Si      -2.70734913      -2.72460024       0.00931914       0.00000000
Si       0.00417024       2.70610036      -2.73565024       0.00000000
Si      -2.71174743      -0.00908982      -2.73558121       0.00000000
Si       2.72171691      -0.01058850      -2.73547766       0.00000000
