10
Lattice="16.28999089631971 0.0 0.0 0.0 16.28999089631971 0.0 0.0 0.0 34.51530692428229" Properties=species:S:1:pos:R:3:initial_magmoms:R:1 pbc="T T T"
Si      -1.17835344       0.07102440       2.02504870       0.00000000
Si       2.32733601      -0.42640704       0.14548210       0.00000000
Si      -0.62530794      -2.23093179      -0.58831374       0.00000000
Si      -0.67113171       2.17948797      -0.77114142       0.00000000
Si      -3.19508802       0.70574796       0.99069341       0.00000000
Si       0.06486678      -3.21562971       1.50535144       0.00000000
Si       0.65632410      -2.67582798      -2.46435978       0.00000000
Si       2.73041577      -0.75355911       2.44734372       0.00000000
Si      -2.77635357      -2.05498350      -1.52112494       0.00000000
Si       2.71888245      -2.13938199      -1.54335281       0.00000000
