10
Lattice="16.28999089631971 0.0 0.0 0.0 16.28999089631971 0.0 0.0 0.0 34.51530692428229" Properties=species:S:1:pos:R:3:initial_magmoms:R:1 pbc="T T T"
Si       1.35528447      -1.35462820       1.35828163       0.00000000
Si      -1.35778779      -1.35568357      -1.35641780       0.00000000
Si       1.35684753       1.35924412      -1.35648684       0.00000000
Si      -1.35599589       1.35684949       1.36452891       0.00000000
Si       2.71354815      -2.71270921       0.00120804       0.00000000
Si      -0.00071676      -2.71280695      -2.71362946       0.00000000
Si       2.71435776       0.00167950      -2.71338785       0.00000000
Si       2.71434798       2.71517485       0.00134610       0.00000000
Si      -2.71489140      -2.71502239       0.00113901       0.00000000
Si      -2.71595025       0.00187987      -2.71421622       0.00000000
