10
Lattice="16.28999089631971 0.0 0.0 0.0 16.28999089631971 0.0 0.0 0.0 34.51530692428229" Properties=species:S:1:pos:R:3:initial_magmoms:R:1 pbc="T T T"
Si      -1.35456237      -1.35351271      -1.39445369       0.00000000
Si       1.36467846       1.35614413      -1.39238277       0.00000000
Si       1.36888128      -1.46244031       1.39655913       0.00000000
Si      -1.38162006       1.43474338       1.50559304       0.00000000
Si      -2.71593396      -2.70513925      -0.02029501       0.00000000
Si      -2.71207323       2.71487674      -0.02129596       0.00000000
Si       2.71779102       2.72285884      -0.01125200       0.00000000
Si       2.72249883      -2.71815496      -0.04286804       0.00000000
Si      -2.71176372       0.00096111      -2.75594525       0.00000000
Si       0.00578295      -2.71572775      -2.75577268       0.00000000
