10
Lattice="16.28999089631971 0.0 0.0 0.0 16.28999089631971 0.0 0.0 0.0 34.51530692428229" Properties=species:S:1:pos:R:3:initial_magmoms:R:1 pbc="T T T"
Si       0.30193515      -1.86210827      -1.40456668       0.00000000
Si       1.93178223       0.17431929       1.35541686       0.00000000
Si      -0.13506039       2.19957354      -0.86847464       0.00000000
Si      -1.94105124      -0.01005093       1.39990712       0.00000000
Si       1.73726334       0.19445373      -2.35712066       0.00000000
Si      -0.61048404      -0.57290953      -3.26597823       0.00000000
Si      -0.95392611       1.63290960       2.81772769       0.00000000
Si      -1.89920223       1.52757846      -2.57063247       0.00000000
Si      -1.09393866       3.27349179       1.09803607       0.00000000
Si       2.61479002      -2.33291438      -0.92104148       0.00000000
