10
Lattice="16.28999089631971 0.0 0.0 0.0 16.28999089631971 0.0 0.0 0.0 34.51530692428229" Properties=species:S:1:pos:R:3:initial_magmoms:R:1 pbc="T T T"
Si      -1.56268341      -1.59659172       0.69127295       0.00000000
Si      -0.30193515       1.86210827       1.40456668       0.00000000
Si       2.31285487      -0.47080611       0.48352520       0.00000000
Si      -0.91241919       1.28919874      -1.86141154       0.00000000
Si       1.43532819       2.05656200      -0.95255397       0.00000000
Si      -2.57634495      -2.15994879      -1.50279730       0.00000000
Si      -1.27982385      -1.68942843       3.03096337       0.00000000
Si       2.80778091      -2.22095484      -1.07294343       0.00000000
Si      -0.96795180      -3.65670657      -0.18907496       0.00000000
Si       0.87907356       0.85910854      -3.58838589       0.00000000
