10
Lattice="16.28999089631971 0.0 0.0 0.0 16.28999089631971 0.0 0.0 0.0 34.51530692428229" Properties=species:S:1:pos:R:3:initial_magmoms:R:1 pbc="T T T"
Si       1.30717476       1.82698052      -0.67829519       0.00000000
Si       0.76367520      -1.80631569      -1.39863005       0.00000000
Si       0.42938811      -0.32749090       2.35177078       0.00000000
Si      -2.32147161       0.55147351      -0.38919482       0.00000000
Si      -0.36285975      -3.72215001      -0.69972921       0.00000000
Si       0.71177526       2.21324899      -3.01342959       0.00000000
Si      -3.39797997       0.47484210       1.70015594       0.00000000
Si      -0.75372201      -2.28998208       3.03645131       0.00000000
Si      -3.36132747      -1.11625500      -1.61635273       0.00000000
Si       2.76199298      -0.70411896       2.66420352       0.00000000
