10
Lattice="16.28999089631971 0.0 0.0 0.0 16.28999089631971 0.0 0.0 0.0 34.51530692428229" Properties=species:S:1:pos:R:3:initial_magmoms:R:1 pbc="T T T"
Si       0.13506039      -2.19957354       0.86847464       0.00000000
Si      -0.95887827       1.07391825       1.96651071       0.00000000
Si       1.51829316       1.61121132      -1.13807385       0.00000000
Si      -1.76414184      -0.67199508      -1.70215783       0.00000000
Si       1.87232373      -2.00511981      -1.48864602       0.00000000
Si       0.10274103       3.53870928      -0.51703959       0.00000000
Si      -1.80599085      -2.20962447       2.26838175       0.00000000
Si       2.06684262      -2.02525425       2.22389150       0.00000000
Si      -0.47542365      -2.77248307      -2.39750359       0.00000000
Si       3.39717591       1.35622395       0.72316511       0.00000000
