10
Lattice="16.28999089631971 0.0 0.0 0.0 16.28999089631971 0.0 0.0 0.0 34.51530692428229" Properties=species:S:1:pos:R:3:initial_magmoms:R:1 pbc="T T T"
Si       0.19530081       1.84138902      -1.37219131       0.00000000
Si       2.27742738      -0.40734774      -0.06771907       0.00000000
Si      -1.38637674      -1.65820797      -0.92283628       0.00000000
Si      -0.04256577       0.72615933       2.24905317       0.00000000
Si       2.73274917       1.77370407       1.02006595       0.00000000
Si      -1.76687856       2.86822917      -0.66997700       0.00000000
Si      -0.32475744       0.80658306      -3.40638657       0.00000000
Si       2.57537148      -1.84503798       1.66774605       0.00000000
Si      -1.24636419      -3.29879016       0.79685534       0.00000000
Si      -3.48900849       1.28089899      -0.30097364       0.00000000
