10
Lattice="16.28999089631971 0.0 0.0 0.0 16.28999089631971 0.0 0.0 0.0 34.51530692428229" Properties=species:S:1:pos:R:3:initial_magmoms:R:1 pbc="T T T"
Si       0.98505630       1.57108905      -1.42696713       0.00000000
Si      -2.33816886       0.24687495      -0.45729356       0.00000000
Si       0.48654972       1.09740843       2.09884247       0.00000000
Si       0.92822049      -2.03949171      -1.06251980       0.00000000
Si       1.81769100       0.17353737      -3.11217793       0.00000000
Si       2.29692651       3.01304727      -0.05325715       0.00000000
Si       0.33282099      -1.65322323      -3.39765420       0.00000000
Si      -0.80024625       2.74473468      -2.53087081       0.00000000
Si       0.93550212      -0.48381300       3.72178763       0.00000000
Si      -0.37895427      -3.86647222      -0.38422461       0.00000000
