10
Lattice="16.28999089631971 0.0 0.0 0.0 16.28999089631971 0.0 0.0 0.0 34.51530692428229" Properties=species:S:1:pos:R:3:initial_magmoms:R:1 pbc="T T T"
Si      -2.06255835      -0.53644599      -0.92100696       0.00000000
Si       1.49478669       1.09967274      -1.40515345       0.00000000
Si       0.65624265      -2.20387410       0.42257114       0.00000000
Si      -0.39154644       1.71297495       1.68883491       0.00000000
Si      -3.34419039      -0.09154980       0.95503908       0.00000000
Si       0.49236525       3.19834602      -1.38806836       0.00000000
Si       1.23181722      -2.05214904       2.68232406       0.00000000
Si      -2.71888245       2.13938199       1.54335281       0.00000000
Si       0.73498851       3.62880927       0.98993407       0.00000000
Si       3.50344862       1.54393362      -0.25020160       0.00000000
