10
Lattice="16.28999089631971 0.0 0.0 0.0 16.28999089631971 0.0 0.0 0.0 34.51530692428229" Properties=species:S:1:pos:R:3:initial_magmoms:R:1 pbc="T T T"
Si       1.34154666       1.36830528       1.37963281       0.00000000
Si      -1.37456649      -1.35001746       1.37524937       0.00000000
Si      -1.32743952       1.46474208      -1.35039143       0.00000000
Si       1.36878354      -1.42236135      -1.51258585       0.00000000
Si      -0.34503849      -2.54498670      -2.63743584       0.00000000
Si       2.69700904       2.70566216       0.01863828       0.00000000
Si       2.70604999      -2.71681362      -0.01352656       0.00000000
Si       2.69862413       0.01029805       2.73515322       0.00000000
Si      -2.72906370      -2.70598077      -0.00130468       0.00000000
Si      -0.01598049      -2.70454725       2.73515322       0.00000000
