10
Lattice="16.28999089631971 0.0 0.0 0.0 16.28999089631971 0.0 0.0 0.0 34.51530692428229" Properties=species:S:1:pos:R:3:initial_magmoms:R:1 pbc="T T T"
Si      -1.41793047       1.55717350       0.87872569       0.00000000
Si      -1.38658851      -1.89998415      -0.02143402       0.00000000
Si      -0.28285956       0.09283671      -2.33969042       0.00000000
Si       2.17010493       0.36140994       1.01354255       0.00000000
Si      -0.96316254       3.54148577      -0.22648957       0.00000000
Si       1.27982385       1.68942843      -3.03096337       0.00000000
Si      -0.38481867      -3.37338207       1.48060395       0.00000000
Si       3.17252637      -1.73726334       0.99645747       0.00000000
Si       0.31187205      -1.96727814      -3.22003833       0.00000000
Si      -3.63993534       0.77333517       0.89280794       0.00000000
