10
Lattice="16.28999089631971 0.0 0.0 0.0 16.28999089631971 0.0 0.0 0.0 34.51530692428229" Properties=species:S:1:pos:R:3:initial_magmoms:R:1 pbc="T T T"
Si      -1.00242144       2.09867328       0.01708509       0.00000000
Si      -1.49478669      -1.09967274       1.40515345       0.00000000
Si       0.48811097      -1.09156032      -2.01448701       0.00000000
Si       2.00866193       0.44426088       1.15495185       0.00000000
Si      -0.75979818       2.52913653       2.39508752       0.00000000
Si       0.60562866       3.31553907      -1.17317594       0.00000000
Si       2.80941317      -0.73938681      -2.14433367       0.00000000
Si      -1.88633313       0.61330221       3.09398836       0.00000000
Si      -3.17252637       1.73726334      -0.99645747       0.00000000
Si       2.57860016      -1.39828473       2.40547663       0.00000000
