10
Lattice="16.28999089631971 0.0 0.0 0.0 16.28999089631971 0.0 0.0 0.0 34.51530692428229" Properties=species:S:1:pos:R:3:initial_magmoms:R:1 pbc="T T T"
Si      -1.12653495      -1.91583432       0.69890084       0.00000000
Si       2.31770115      -0.42619527       0.41135366       0.00000000
Si      -0.76367520       1.80631569       1.39863005       0.00000000
Si      -0.24262326      -0.43046325      -2.37800243       0.00000000
Si       0.75979818      -2.52913653      -2.39508752       0.00000000
Si       2.76846011      -2.08487565      -1.24013567       0.00000000
Si       0.54349956       3.63329621       0.72033486       0.00000000
Si      -3.45387096      -1.48942728       0.55341874       0.00000000
Si      -0.72345519      -2.24298639       3.00076246       0.00000000
Si      -0.73498851      -3.62880927      -0.98993407       0.00000000
