10
Lattice="16.28999089631971 0.0 0.0 0.0 16.28999089631971 0.0 0.0 0.0 34.51530692428229" Properties=species:S:1:pos:R:3:initial_magmoms:R:1 pbc="T T T"
Si       2.25212508      -0.42912747       0.48645901       0.00000000
Si      -0.82484415      -0.03241710      -2.26437798       0.00000000
Si      -1.00690119      -1.89276768       1.13224076       0.00000000
Si       0.41296779       2.38778820       0.32920718       0.00000000
Si      -1.23214302       2.75820651       1.87293966       0.00000000
Si      -3.60072857      -0.18412587      -0.29959303       0.00000000
Si       3.43147221       0.58339377      -1.29432473       0.00000000
Si      -1.63159011       2.14066890      -2.63907636       0.00000000
Si      -0.83339640      -3.67416063      -0.50136963       0.00000000
Si      -3.14540678       1.99692594       0.78819199       0.00000000
