10
Lattice="16.28999089631971 0.0 0.0 0.0 16.28999089631971 0.0 0.0 0.0 34.51530692428229" Properties=species:S:1:pos:R:3:initial_magmoms:R:1 pbc="T T T"
Si      -0.00747385       1.34988714      -1.90320960       0.00000000
Si       1.78442778      -1.49377671       0.18465700       0.00000000
Si       0.58344753       1.21300227       1.98042975       0.00000000
Si      -1.79603996      -1.61472996      -0.13205564       0.00000000
Si      -1.12246571      -2.40117858       1.94686532       0.00000000
Si      -0.17186602      -0.66538134       3.25057201       0.00000000
Si      -1.07902028       3.00811140       1.60986385       0.00000000
Si       3.08427204      -1.02641661      -1.61272862       0.00000000
Si      -1.47137486       3.14180343      -1.13596842       0.00000000
Si      -0.18698314      -0.17710488      -3.72499755       0.00000000
