10
Lattice="16.28999089631971 0.0 0.0 0.0 16.28999089631971 0.0 0.0 0.0 34.51530692428229" Properties=species:S:1:pos:R:3:initial_magmoms:R:1 pbc="T T T"
Si       1.34467434       1.35956340       1.37859390       0.00000000
Si      -1.36613642      -1.35487188       1.37762747       0.00000000
Si      -1.28713317       1.30129407      -1.55487058       0.00000000
Si       1.40615280      -1.34381097      -1.46281130       0.00000000
Si      -0.62670888      -2.19509379      -2.61742386       0.00000000
Si       0.55094409       1.98711936      -3.03841665       0.00000000
Si      -2.28917669      -0.39998466      -2.98798976       0.00000000
Si       2.50189965       0.27500778      -2.85158519       0.00000000
Si      -2.71851091       2.70607851      -0.01045814       0.00000000
Si       2.70337437      -2.72184723       0.00309257       0.00000000
