10
Lattice="16.28999089631971 0.0 0.0 0.0 16.28999089631971 0.0 0.0 0.0 34.51530692428229" Properties=species:S:1:pos:R:3:initial_magmoms:R:1 pbc="T T T"
Si      -1.35500481       1.35011520      -1.36149156       0.00000000
Si       1.36124096      -1.36397799      -1.35911000       0.00000000
Si       1.34929387       1.35998694       1.37602251       0.00000000
Si      -1.35215406      -1.37389860       1.37584993       0.00000000
Si       2.64090680      -0.10806786       2.69115998       0.00000000
Si      -2.70872010       2.70537804      -0.00241607       0.00000000
Si       0.00349122       2.70826137      -2.71739163       0.00000000
Si       2.71887074       2.70848943       0.00193286       0.00000000
Si      -2.71137537      -0.00682551      -2.71770227       0.00000000
Si      -2.71062603      -2.72189610       0.00013806       0.00000000
