10
Lattice="16.28999089631971 0.0 0.0 0.0 16.28999089631971 0.0 0.0 0.0 34.51530692428229" Properties=species:S:1:pos:R:3:initial_magmoms:R:1 pbc="T T T"
Si       1.64639772       1.36922337       0.91731382       0.00000000
Si       0.80674596      -2.17308600       0.37469838       0.00000000
Si       0.26295318       0.18337653      -2.37883080       0.00000000
Si      -1.87284338       0.75885336       1.30985663       0.00000000
Si      -1.27688839      -3.29334930       0.24102052       0.00000000
Si       0.46504692       3.41265726       0.86485053       0.00000000
Si       2.04455790       0.24711930       2.96828354       0.00000000
Si      -1.85625527       3.06048375       0.99469719       0.00000000
Si      -1.51381667      -0.14374296       3.42726835       0.00000000
Si       1.63159011      -2.14066890       2.63907636       0.00000000
