10
Lattice="16.28999089631971 0.0 0.0 0.0 16.28999089631971 0.0 0.0 0.0 34.51530692428229" Properties=species:S:1:pos:R:3:initial_magmoms:R:1 pbc="T T T"
Si      -1.35685600       1.35697329      -1.35731520       0.00000000
Si       1.35946566      -1.35563099      -1.35883388       0.00000000
Si      -1.35144446      -1.36555649       1.36508115       0.00000000
Si       1.34750880       1.37189493       1.37336483       0.00000000
Si      -2.51708682       0.11624544       2.76246865       0.00000000
Si       2.56787415      -0.12386916       2.71804742       0.00000000
Si       2.71554300      -2.71038626      -0.00069031       0.00000000
Si       0.00039096      -2.71322100      -2.71507911       0.00000000
Si      -2.71591952      -2.71282976      -0.00037967       0.00000000
Si      -2.71435646       0.00104256      -2.71514814       0.00000000
