10
Lattice="16.28999089631971 0.0 0.0 0.0 16.28999089631971 0.0 0.0 0.0 34.51530692428229" Properties=species:S:1:pos:R:3:initial_magmoms:R:1 pbc="T T T"
Si       1.46390101      -1.79191629      -0.76724119       0.00000000
Si       1.07617458       2.05107390      -0.77048563       0.00000000
Si      -1.95066773      -0.59798961      -1.39521303       0.00000000
Si       0.39235459      -0.13369203       2.74583226       0.00000000
Si      -3.29069942      -0.36139365       0.64353826       0.00000000
Si       1.47137486      -3.14180343       1.13596842       0.00000000
Si       3.29559911       1.57494978       0.05594934       0.00000000
Si       3.44406617      -0.64438353      -1.24776356       0.00000000
Si       0.23650653       3.82241592       0.69707153       0.00000000
Si      -2.19146651      -2.93892777      -1.69618668       0.00000000
