10
Lattice="16.28999089631971 0.0 0.0 0.0 16.28999089631971 0.0 0.0 0.0 34.51530692428229" Properties=species:S:1:pos:R:3:initial_magmoms:R:1 pbc="T T T"
Si      -1.35528447       1.35462820      -1.35828163       0.00000000
Si      -1.35345999      -1.36282140       1.35576201       0.00000000
Si       1.35826368      -1.35808101      -1.35707360       0.00000000
Si       1.36447506       1.34727327       1.36546082       0.00000000
Si       2.54656868      -0.13383864       2.85483166       0.00000000
Si      -2.71128036       2.71147769       0.00624727       0.00000000
Si      -2.71307226      -0.00105537      -2.71469944       0.00000000
Si       0.00156306       2.71387232      -2.71476847       0.00000000
Si       2.71591952       2.71282976       0.00037967       0.00000000
Si      -2.71105230      -2.71860552       0.00058676       0.00000000
