10
Lattice="16.28999089631971 0.0 0.0 0.0 16.28999089631971 0.0 0.0 0.0 34.51530692428229" Properties=species:S:1:pos:R:3:initial_magmoms:R:1 pbc="T T T"
Si       1.34692236       1.35601218       1.37229485       0.00000000
Si       1.35594702      -1.35826020      -1.36194026       0.00000000
Si      -1.35827486       1.35741312      -1.36200929       0.00000000
Si      -1.36957686      -1.34850249       1.37408965       0.00000000
Si      -2.71887074      -2.70848943      -0.00193286       0.00000000
Si      -2.71653854       2.71549413      -0.00493569       0.00000000
Si       2.71744893      -2.71464705      -0.00134610       0.00000000
Si       2.71492398       2.71793763      -0.00524633       0.00000000
Si      -2.71537951      -0.00022806      -2.71932449       0.00000000
Si      -0.00022806       2.71510289      -2.71963513       0.00000000
