10
Lattice="16.28999089631971 0.0 0.0 0.0 16.28999089631971 0.0 0.0 0.0 34.51530692428229" Properties=species:S:1:pos:R:3:initial_magmoms:R:1 pbc="T T T"
Si       1.20479211       1.55388259       1.36131898       0.00000000
Si      -1.18209362       1.48111191      -1.48937084       0.00000000
Si      -1.78982302      -0.80967816       1.44598508       0.00000000
Si       1.51689222      -1.22564331      -1.47760112       0.00000000
Si      -2.60601623      -2.51815707      -0.00027612       0.00000000
Si      -0.24332373       3.60658061       0.91796962       0.00000000
Si      -2.34773598       2.96291384      -0.09198334       0.00000000
Si      -2.54656868       0.13383864      -2.85483166       0.00000000
Si       2.80367190      -2.61726543      -0.05004722       0.00000000
Si       0.16996986      -2.58165549      -2.84989597       0.00000000
