10
Lattice="16.28999089631971 0.0 0.0 0.0 16.28999089631971 0.0 0.0 0.0 34.51530692428229" Properties=species:S:1:pos:R:3:initial_magmoms:R:1 pbc="T T T"
Si       0.95773797       1.30841280       1.70143301       0.00000000
Si      -2.32130219      -0.35217351       0.12984666       0.00000000
Si       0.20994552       0.94214844      -2.14678426       0.00000000
Si       1.18135080      -2.04343389       0.05246330       0.00000000
Si      -0.46504692      -3.41265726      -0.86485053       0.00000000
Si      -2.33789030      -2.65380390       0.44500610       0.00000000
Si       1.68956622       2.77215075      -1.50410889       0.00000000
Si      -0.80075124       1.18364769       3.29928552       0.00000000
Si      -2.80941317       0.73938681       2.14433367       0.00000000
Si       3.05478225       0.33739848       2.09269874       0.00000000
