10
Lattice="10.86 0.0 0.0 0.0 10.86 0.0 0.0 0.0 10.86" Properties=species:S:1:pos:R:3:initial_magmoms:R:1 pbc="T T T"
Si       1.15531938       1.39996260       1.24704294       0.00000000
Si       1.15531938      -1.31503740      -1.46795706       0.00000000
Si      -1.55968062      -1.31503740       1.24704294       0.00000000
Si       2.51281938       0.04246260       2.60454294       0.00000000
Si       2.51281938      -2.67253740      -0.11045706       0.00000000
Si       2.51281938       2.75746260      -0.11045706       0.00000000
Si      -0.20218062      -2.67253740       2.60454294       0.00000000
Si       2.51281938       0.04246260      -2.82545706       0.00000000
Si      -0.19656600       2.85332382       2.50278474       0.00000000
Si      -0.20218062      -2.67253740      -2.82545706       0.00000000
