10
Lattice="10.86 0.0 0.0 0.0 10.86 0.0 0.0 0.0 10.86" Properties=species:S:1:pos:R:3:initial_magmoms:R:1 pbc="T T T"
Si       1.17407460      -1.42331160      -1.27964466       0.00000000
Si       1.17407460       1.29168840       1.43535534       0.00000000
Si      -1.54092540       1.29168840      -1.27964466       0.00000000
Si       2.53157460      -0.06581160      -2.63714466       0.00000000
Si       2.53157460       2.64918840       0.07785534       0.00000000
Si      -0.18342540       2.64918840      -2.63714466       0.00000000
Si       2.53157460      -2.78081160       0.07785534       0.00000000
Si       2.53157460      -0.06581160       2.79285534       0.00000000
Si      -0.18342540      -2.78081160      -2.63714466       0.00000000
Si      -0.29431686       2.71668330       2.72180922       0.00000000
