10
Lattice="10.86 0.0 0.0 0.0 10.86 0.0 0.0 0.0 10.86" Properties=species:S:1:pos:R:3:initial_magmoms:R:1 pbc="T T T"
Si       1.34706354       1.26480990       1.20806640       0.00000000
Si      -1.36793646      -1.45019010       1.20806640       0.00000000
Si       1.25056158      -1.22183688      -1.59821190       0.00000000
Si      -1.36793646       1.26480990      -1.50693360       0.00000000
Si      -0.01043646       2.62230990       2.56556640       0.00000000
Si       2.50816044      -2.72189610      -0.16418148       0.00000000
Si      -2.72543646      -0.09269010       2.56556640       0.00000000
Si       2.70456354       2.62230990      -0.14943360       0.00000000
Si      -2.72543646       2.62230990      -0.14943360       0.00000000
Si       2.74294278      -0.03415470       2.64258552       0.00000000
