10
Lattice="16.2900001489832 0.0 0.0 0.0 16.2900001489832 0.0 0.0 0.0 29.1250468810149" Properties=species:S:1:pos:R:3:initial_magmoms:R:1 pbc="T T T"
Si       1.12943458      -1.55497011       1.33331552       0.00000000
Si       1.63916497       1.43805678      -0.87724641       0.00000000
Si      -1.26148132      -0.36270174      -1.99069695       0.00000000
Si      -1.33889140       0.82825691       1.79503489       0.00000000
H       -0.79200352      -1.54529385      -2.63736037       0.00000000
Si      -2.69686002      -1.27000914       1.50331842       0.00000000
H        1.00580977      -2.20257907      -2.59064380       0.00000000
Si       0.26080290       2.86048330      -2.17022374       0.00000000
Si      -2.34982601       2.74299982       0.83510247       0.00000000
Si       3.08216577       0.03107643      -2.06770358       0.00000000
