10
Lattice="16.2900001489832 0.0 0.0 0.0 16.2900001489832 0.0 0.0 0.0 29.1250468810149" Properties=species:S:1:pos:R:3:initial_magmoms:R:1 pbc="T T T"
Si       0.05610276      -1.26257275      -1.99107558       0.00000000
Si       0.67344490      -1.73047043       1.46015510       0.00000000
Si      -1.91985308       1.03151539       1.03440516       0.00000000
Si       1.89095951       1.52277292       0.04965820       0.00000000
H        0.32428503      -0.48809727      -3.14669919       0.00000000
H        0.28458630       1.63791065      -3.02644187       0.00000000
Si       1.82462663      -0.35929224       2.91521332       0.00000000
Si      -0.72988812       2.41437350       2.51031692       0.00000000
Si       2.03524004      -2.45286677      -1.63542963       0.00000000
Si       0.80024626       3.42086745       1.01200800       0.00000000
