10
Lattice="16.2900001489832 0.0 0.0 0.0 16.2900001489832 0.0 0.0 0.0 29.1250468810149" Properties=species:S:1:pos:R:3:initial_magmoms:R:1 pbc="T T T"
Si      -1.17082747       1.28004378      -1.58845093       0.00000000
Si       1.19435023       1.46105174       1.41381715       0.00000000
Si      -1.53013438      -1.00649395       1.49830891       0.00000000
Si       1.09071325      -1.89809453      -0.96234980       0.00000000
H       -1.93696084       2.14153229      -0.73980532       0.00000000
Si      -2.72009934      -2.38935206       0.02239716       0.00000000
Si      -0.80024626      -3.42086745      -1.01200800       0.00000000
Si       2.41536719       2.79094944      -0.05032808       0.00000000
Si      -0.30097404      -2.29529360       3.01351326       0.00000000
Si       2.59388930       0.18208962       2.82628969       0.00000000
