10
Lattice="16.2900001489832 0.0 0.0 0.0 16.2900001489832 0.0 0.0 0.0 29.1250468810149" Properties=species:S:1:pos:R:3:initial_magmoms:R:1 pbc="T T T"
Si       1.37494117       1.30604750      -1.37732347       0.00000000
Si      -1.36347301       1.37699045       1.32146163       0.00000000
Si      -1.39922956      -1.29447183      -1.37330712       0.00000000
Si       1.34726446      -1.35347421       1.37828459       0.00000000
Si      -0.01625742      -2.67920329      -2.65319275       0.00000000
Si       0.00397476       2.63415493      -2.71039434       0.00000000
Si      -2.69853626      -0.02623667       2.64662214       0.00000000
Si       2.70721883      -2.69104612       0.01872741       0.00000000
Si       0.01814706       2.72197432       2.68835833       0.00000000
Si       2.72637587       2.70651511      -0.06459935       0.00000000
