10
Lattice="16.2900001489832 0.0 0.0 0.0 16.2900001489832 0.0 0.0 0.0 29.1250468810149" Properties=species:S:1:pos:R:3:initial_magmoms:R:1 pbc="T T T"
Si      -1.37614663      -1.44883261      -1.23229410       0.00000000
Si      -1.33648048       1.28785483       1.46398796       0.00000000
Si       1.46409634       1.32620149      -1.29988579       0.00000000
Si       1.33082785      -1.36104580       1.40481751       0.00000000
Si      -2.71766072       2.64114659       0.16124791       0.00000000
Si       2.64934046      -2.72525186       0.00897634       0.00000000
Si       2.56940543       2.80582221       0.13241994       0.00000000
Si       2.68218110       0.00092853       2.78143615       0.00000000
Si      -2.70457985      -2.80450272       0.16127121       0.00000000
Si      -2.72404640      -0.05730822       2.79751318       0.00000000
