10
Lattice="16.2900001489832 0.0 0.0 0.0 16.2900001489832 0.0 0.0 0.0 29.1250468810149" Properties=species:S:1:pos:R:3:initial_magmoms:R:1 pbc="T T T"
Si       1.31851261      -1.36420606      -1.39584117       0.00000000
Si      -1.31300659      -1.37109673       1.40224868       0.00000000
Si       1.35135325       1.36197433       1.37661864       0.00000000
Si      -1.33082785       1.36104580      -1.40481751       0.00000000
Si      -2.66730833       2.64890063       0.05917045       0.00000000
Si      -2.70697448      -0.08778681      -2.63711161       0.00000000
Si       2.70479162      -2.69004917      -0.01491785       0.00000000
Si       0.13326849       2.68724729      -2.70470330       0.00000000
Si       2.67006134       0.01860318      -2.73114885       0.00000000
Si       2.66435984       2.77205304      -0.00165722       0.00000000
