10
Lattice="16.2900001489832 0.0 0.0 0.0 16.2900001489832 0.0 0.0 0.0 29.1250468810149" Properties=species:S:1:pos:R:3:initial_magmoms:R:1 pbc="T T T"
Si       0.74420866       1.65477080       1.39721587       0.00000000
Si       1.51006672      -1.11443149      -1.37630409       0.00000000
Si      -0.76810609      -1.80055001       1.29795771       0.00000000
Si      -1.08709687       0.86161069      -1.90538969       0.00000000
Si      -3.23263650       1.06826563      -1.00091136       0.00000000
Si       0.03305241      -2.38826063      -2.67498993       0.00000000
Si       2.79586902      -2.31156731       0.17434253       0.00000000
Si       0.75333106       0.51023538       3.54944034       0.00000000
Si      -2.77610925      -2.38264058       0.25295103       0.00000000
Si       2.40178133       2.78790321       0.05629872       0.00000000
