10
Lattice="16.2900001489832 0.0 0.0 0.0 16.2900001489832 0.0 0.0 0.0 29.1250468810149" Properties=species:S:1:pos:R:3:initial_magmoms:R:1 pbc="T T T"
Si       1.15134463       1.17279856      -1.70087361       0.00000000
Si      -1.20783835       1.72633277       1.07599573       0.00000000
Si      -1.57174066      -1.50252445      -0.93535088       0.00000000
Si       1.91189216      -0.89541244       1.12373168       0.00000000
H       -0.66165094      -1.89535781       1.59523707       0.00000000
H       -0.51629526      -1.45684729       2.17735938       0.00000000
H       -0.95983939      -2.00933894      -2.11444928       0.00000000
Si       3.11008683      -1.77176558      -0.69384599       0.00000000
Si      -1.65424952       0.77375872       3.16228109       0.00000000
Si      -3.31490100      -0.01260846      -1.55300575       0.00000000
