10
Lattice="16.2900001489832 0.0 0.0 0.0 16.2900001489832 0.0 0.0 0.0 29.1250468810149" Properties=species:S:1:pos:R:3:initial_magmoms:R:1 pbc="T T T"
Si       1.34223085       1.40797729      -1.25224304       0.00000000
Si       1.40165677      -1.32647842       1.32201500       0.00000000
Si      -1.33534018       1.40773294       1.31554924       0.00000000
Si      -1.28660050      -1.34921926      -1.43715214       0.00000000
Si      -2.69943221      -0.00055386       2.59061467       0.00000000
Si       0.03214017      -2.69703758       2.65425290       0.00000000
Si       0.03026682       2.76752442      -2.59011372       0.00000000
Si      -2.67416642      -2.69438231      -0.10362692       0.00000000
Si       2.73206109      -2.63614556      -0.11970394       0.00000000
Si       2.61928541       0.16874811      -2.76872016       0.00000000
