10
Lattice="16.2900001489832 0.0 0.0 0.0 16.2900001489832 0.0 0.0 0.0 29.1250468810149" Properties=species:S:1:pos:R:3:initial_magmoms:R:1 pbc="T T T"
Si      -1.36409203      -1.40828680       1.27506543       0.00000000
Si       1.33534018      -1.40773294      -1.31554924       0.00000000
Si      -1.34995231       1.36011727      -1.35984844       0.00000000
Si       1.34628706       1.37497375       1.36707145       0.00000000
Si       2.67757103       0.00024435      -2.56779228       0.00000000
Si      -2.75661012      -0.07687251       2.56795538       0.00000000
Si      -0.01842399      -2.73408104       2.65037927       0.00000000
Si       0.00257382       2.76465738      -2.64947639       0.00000000
Si      -2.69803127      -0.00211770      -2.72428116       0.00000000
Si      -0.04225626       2.69413796       2.74963743       0.00000000
