10
Lattice="16.2900001489832 0.0 0.0 0.0 16.2900001489832 0.0 0.0 0.0 29.1250468810149" Properties=species:S:1:pos:R:3:initial_magmoms:R:1 pbc="T T T"
Si       1.35252613       1.40454010      -1.28962795       0.00000000
Si      -1.34964280       1.39185019       1.31051061       0.00000000
Si       1.34995231      -1.36011727       1.35984844       0.00000000
Si      -1.34807896      -1.36223497      -1.36443272       0.00000000
Si       2.71555931      -0.00032580      -2.54581452       0.00000000
Si      -2.71327871      -0.01754433       2.57829478       0.00000000
Si      -0.01413972      -2.76840408       2.63491387       0.00000000
Si       0.01036044       2.76721491      -2.63836810       0.00000000
Si      -2.76912735       0.01029528      -2.64570761       0.00000000
Si       2.69623937       0.01485648       2.72691989       0.00000000
