10
Lattice="16.2900001489832 0.0 0.0 0.0 16.2900001489832 0.0 0.0 0.0 29.1250468810149" Properties=species:S:1:pos:R:3:initial_magmoms:R:1 pbc="T T T"
Si       1.31365819       0.52010712       1.87346864       0.00000000
Si      -2.30778803      -0.18950157       0.53552224       0.00000000
Si       0.26182917       1.67275496      -1.70404824       0.00000000
Si       1.44533026      -1.90534358      -0.39901314       0.00000000
H       -1.39634623       2.03067884       0.27826070       0.00000000
Si      -1.09589347       2.96461713       1.29615196       0.00000000
Si       2.84219778       1.87268213       0.81826819       0.00000000
Si      -3.22004270       0.37693431      -1.50608530       0.00000000
Si      -2.43524099      -2.51317235       0.86006263       0.00000000
Si       3.10290294      -0.77221117      -1.73993030       0.00000000
