10
Lattice="16.2900001489832 0.0 0.0 0.0 16.2900001489832 0.0 0.0 0.0 29.1250468810149" Properties=species:S:1:pos:R:3:initial_magmoms:R:1 pbc="T T T"
Si      -1.29573919       1.40696731       1.35501368       0.00000000
Si       1.22699539      -1.42873075       1.42060329       0.00000000
Si      -1.41657841      -1.34387614      -1.33914053       0.00000000
Si       1.38870622       1.39572721      -1.32041313       0.00000000
H       -2.04159314       0.55156312       2.21309581       0.00000000
Si       2.70506855      -2.65404827       0.03288218       0.00000000
Si      -2.65246814       2.72861249      -0.05370659       0.00000000
Si      -0.02803509      -2.66304035      -2.72170651       0.00000000
Si       2.53597835      -0.12743667       2.89191328       0.00000000
Si       2.73240317       0.06328665      -2.71666787       0.00000000
