10
Lattice="16.2900001489832 0.0 0.0 0.0 16.2900001489832 0.0 0.0 0.0 29.1250468810149" Properties=species:S:1:pos:R:3:initial_magmoms:R:1 pbc="T T T"
Si      -1.22699539       1.42873075      -1.42060329       0.00000000
Si       1.30898296       1.30129408       1.47130999       0.00000000
Si       1.47807316      -1.22531752      -1.38772111       0.00000000
Si      -1.45384993      -1.43705494       1.20906807       0.00000000
Si       2.71888247       2.51165738       0.01220339       0.00000000
Si      -2.52273458       2.83569807      -0.06558961       0.00000000
Si       0.15113862      -2.56964978      -2.81455716       0.00000000
Si      -2.64357380       0.08485461      -2.75974382       0.00000000
Si       2.85742893      -2.54464463      -0.00262125       0.00000000
Si      -0.17301609      -2.84359872       2.61368171       0.00000000
