10
Lattice="16.2900001489832 0.0 0.0 0.0 16.2900001489832 0.0 0.0 0.0 29.1250468810149" Properties=species:S:1:pos:R:3:initial_magmoms:R:1 pbc="T T T"
Si      -1.36642150       1.34211682       1.35084880       0.00000000
Si      -1.36371736      -1.33765336      -1.36296482       0.00000000
Si       1.30838023       1.38026800      -1.40452626       0.00000000
Si       1.33644790      -1.36129015       1.40569126       0.00000000
Si       2.64741824      -2.63495965      -0.05609484       0.00000000
Si       2.70945056       0.06045219       2.66966005       0.00000000
Si       0.00861741       2.71383257       2.66607767       0.00000000
Si      -2.68512959      -2.71229969       0.02560092       0.00000000
Si       2.65344554       2.75514402      -0.05091058       0.00000000
Si      -0.01593162      -2.65959828      -2.75021993       0.00000000
