10
Lattice="16.2900001489832 0.0 0.0 0.0 16.2900001489832 0.0 0.0 0.0 29.1250468810149" Properties=species:S:1:pos:R:3:initial_magmoms:R:1 pbc="T T T"
Si       1.31097034      -1.27366950      -1.46178610       0.00000000
Si       1.37300266       1.42174234       1.26396878       0.00000000
Si      -1.33644790       1.36129015      -1.40569126       0.00000000
Si      -1.28614438      -1.40489848       1.43257368       0.00000000
Si       2.63391383      -2.64829790      -0.14265448       0.00000000
Si      -0.00373041       2.72837954       2.63832150       0.00000000
Si      -2.64342719       0.00301365       2.74646280       0.00000000
Si      -2.68623731      -2.71070489       0.02207679       0.00000000
Si      -2.70286940       2.70340697      -0.05484246       0.00000000
Si      -0.03214017      -2.65947284      -2.77270446       0.00000000
