10
Lattice="16.2900001489832 0.0 0.0 0.0 16.2900001489832 0.0 0.0 0.0 29.1250468810149" Properties=species:S:1:pos:R:3:initial_magmoms:R:1 pbc="T T T"
Si      -0.27303669      -1.50848985       1.73352279       0.00000000
Si       1.02641662       1.96048523       0.68516673       0.00000000
Si       1.77114656      -1.18195354      -0.95189391       0.00000000
Si      -1.80405236       0.94685626      -1.19494242       0.00000000
Si      -0.49831110       2.28061631      -2.65259277       0.00000000
Si      -0.26371881       2.75340099       2.44769807       0.00000000
Si       1.15665517      -3.38235789      -0.99671735       0.00000000
Si       1.21995811      -3.28289115       1.36273182       0.00000000
Si       2.76967470       1.32753727       2.17511675       0.00000000
Si       2.54477495      -0.12320127      -2.81671241       0.00000000
