10
Lattice="16.2900001489832 0.0 0.0 0.0 16.2900001489832 0.0 0.0 0.0 29.1250468810149" Properties=species:S:1:pos:R:3:initial_magmoms:R:1 pbc="T T T"
Si       1.69484420      -1.17954099      -1.12909069       0.00000000
Si      -1.12415662      -1.45056098       1.48712489       0.00000000
Si       1.47908314       1.46795707       1.29623934       0.00000000
Si      -2.00352341       0.38806038      -1.41506953       0.00000000
H        1.12397743      -1.75090623      -2.29377219       0.00000000
Si       3.26730162       0.47112309      -1.69813586       0.00000000
Si      -2.45868230      -0.00798210       2.79539287       0.00000000
Si      -2.41616540      -2.96842899       0.19123506       0.00000000
Si       0.32351940      -2.68640021       2.85112458       0.00000000
Si       0.24060330       2.79415857       2.79166487       0.00000000
