10
Lattice="16.2900001489832 0.0 0.0 0.0 16.2900001489832 0.0 0.0 0.0 29.1250468810149" Properties=species:S:1:pos:R:3:initial_magmoms:R:1 pbc="T T T"
Si      -1.40165677       1.32647842      -1.32201500       0.00000000
Si      -1.36951660      -1.37055916       1.33223789       0.00000000
Si       1.33040431      -1.30966714      -1.44171895       0.00000000
Si       1.35446464       1.39093795       1.34330541       0.00000000
Si      -0.05942592       2.73445572      -2.57425804       0.00000000
Si       2.68420106      -2.66978441      -0.07039524       0.00000000
Si       0.00939933      -2.70793559       2.68497982       0.00000000
Si      -2.75542095       0.00013032       2.64391351       0.00000000
Si      -2.70482420      -2.70255989      -0.06116260       0.00000000
Si       2.74061334       0.06726141       2.70580423       0.00000000
