10
Lattice="16.2900001489832 0.0 0.0 0.0 16.2900001489832 0.0 0.0 0.0 29.1250468810149" Properties=species:S:1:pos:R:3:initial_magmoms:R:1 pbc="T T T"
Si       0.01899414      -0.74749924      -2.19032003       0.00000000
Si      -1.99581824       1.12401001       0.46387462       0.00000000
Si      -0.03707604      -1.82055413       1.47090224       0.00000000
Si       2.13312665       1.01753857      -0.13904297       0.00000000
H       -1.25087653      -1.09861390      -2.70024135       0.00000000
H       -1.62654022       1.30507336      -2.54759698       0.00000000
Si       2.31692672      -1.85855870       1.89391442       0.00000000
Si      -2.81124678       1.25216344      -1.75184244       0.00000000
Si       1.49447719      -2.54946647      -2.05745156       0.00000000
Si      -1.23527071      -0.94420099       3.28847992       0.00000000
