10
Lattice="16.2900001489832 0.0 0.0 0.0 16.2900001489832 0.0 0.0 0.0 29.1250468810149" Properties=species:S:1:pos:R:3:initial_magmoms:R:1 pbc="T T T"
Si       1.96783202      -0.18060723      -1.22593147       0.00000000
Si      -1.88605622       0.47638476      -1.29521996       0.00000000
Si       0.33713784       1.33964074       1.95187327       0.00000000
Si      -0.21818826      -1.97517881       1.33873278       0.00000000
Si       2.70194087       1.17139762       1.40074000       0.00000000
Si      -2.03015756       1.01533942       2.42509703       0.00000000
Si       3.27293796      -0.99103474       0.54886151       0.00000000
Si      -3.39335364       0.95467546       0.47963127       0.00000000
Si       1.99945091      -2.95207383       0.98005783       0.00000000
Si       1.61507206      -1.60637320      -2.95808539       0.00000000
