10
Lattice="16.2900001489832 0.0 0.0 0.0 16.2900001489832 0.0 0.0 0.0 29.1250468810149" Properties=species:S:1:pos:R:3:initial_magmoms:R:1 pbc="T T T"
Si      -1.37935576       1.31932711      -1.38509985       0.00000000
Si      -1.51661530      -1.39567834       1.17079776       0.00000000
Si       1.36492282      -1.38942298      -1.36194544       0.00000000
Si       1.13723749       1.02868093       1.86644950       0.00000000
Si      -0.02350647      -2.62876619       2.44778544       0.00000000
Si       1.37445247      -0.89381602       3.22955995       0.00000000
Si      -2.85742893       2.54464463       0.00262125       0.00000000
Si      -0.01326006       2.64877031      -2.77448109       0.00000000
Si       2.67885794      -0.02220327      -2.77928672       0.00000000
Si      -0.34274160       2.46558926       2.97244403       0.00000000
