10
Lattice="16.2900001489832 0.0 0.0 0.0 16.2900001489832 0.0 0.0 0.0 29.1250468810149" Properties=species:S:1:pos:R:3:initial_magmoms:R:1 pbc="T T T"
Si      -1.26840457      -1.28840869      -1.45596109       0.00000000
Si      -1.52910973       1.35648460       1.10223740       0.00000000
Si       1.41929884       1.47613465      -1.09982002       0.00000000
Si       1.63362637      -1.39787749       0.93176850       0.00000000
Si       2.39243087       2.49438998       0.82225832       0.00000000
Si       2.89927794       0.03922632      -2.20581455       0.00000000
Si      -3.05764932       0.00390960       2.15743785       0.00000000
Si       3.13649292      -1.88327063      -0.84270411       0.00000000
Si       0.24542514      -2.38513295      -2.90146630       0.00000000
Si      -2.92597725      -2.42154110      -0.11504394       0.00000000
