10
Lattice="16.2900001489832 0.0 0.0 0.0 16.2900001489832 0.0 0.0 0.0 29.1250468810149" Properties=species:S:1:pos:R:3:initial_magmoms:R:1 pbc="T T T"
Si       1.42153057      -1.30836394      -1.30125467       0.00000000
Si       1.36936999       1.37986564       1.29791694       0.00000000
Si      -1.34894233       1.29533520      -1.40505051       0.00000000
Si      -1.34363179      -1.35078310       1.38124370       0.00000000
Si      -2.67590945       2.64631052      -0.01480717       0.00000000
Si       2.68960934       0.01870092       2.68112367       0.00000000
Si      -2.64209141      -0.15369615      -2.73180029       0.00000000
Si       0.02158425       2.70181055       2.68517205       0.00000000
Si       2.71955036      -2.66833460       0.07584453       0.00000000
Si       0.20913102      -2.92576548      -2.45682003       0.00000000
