10
Lattice="16.2900001489832 0.0 0.0 0.0 16.2900001489832 0.0 0.0 0.0 29.1250468810149" Properties=species:S:1:pos:R:3:initial_magmoms:R:1 pbc="T T T"
Si      -1.78632884      -1.14362317       0.94219527       0.00000000
Si       0.91333144       1.44093196       1.59957670       0.00000000
Si       1.60604740      -1.15707871      -1.28426894       0.00000000
Si      -0.98417665       1.60074990      -1.47384387       0.00000000
H        0.67127833      -1.18451107       2.88725327       0.00000000
H        1.84332755       0.91285903       2.51599630       0.00000000
Si       1.18772020       2.37815757      -1.91482621       0.00000000
Si      -2.31549320      -2.29498409      -1.00428987       0.00000000
Si      -2.14798313       2.71865441       0.36671347       0.00000000
Si       2.68071500       0.60375628      -2.28561718       0.00000000
