10
Lattice="16.2900001489832 0.0 0.0 0.0 16.2900001489832 0.0 0.0 0.0 29.1250468810149" Properties=species:S:1:pos:R:3:initial_magmoms:R:1 pbc="T T T"
Si      -0.92999611       0.52807293      -0.91641960       0.00000000
H       -1.17204922      -2.09737010       0.37125697       0.00000000
Si       1.66602719       0.78249016       1.94071837       0.00000000
Si      -0.02834460      -2.54415593       1.06990860       0.00000000
Si       2.89300629      -0.24612561       0.14524661       0.00000000
Si       1.78491161      -2.28068147      -0.34551043       0.00000000
Si       0.56637073      -1.17138133       2.85122559       0.00000000
Si      -2.93923731       1.31312714       0.05848309       0.00000000
Si      -0.15162732       2.25364007      -2.31206272       0.00000000
Si      -1.84332755      -0.91285903      -2.51599630       0.00000000
