10
Lattice="16.2900001489832 0.0 0.0 0.0 16.2900001489832 0.0 0.0 0.0 29.1250468810149" Properties=species:S:1:pos:R:3:initial_magmoms:R:1 pbc="T T T"
Si       1.66504979      -1.05138919       1.24815388       0.00000000
Si      -1.27658215       1.58115628       1.18763204       0.00000000
Si       0.60080779       0.89766046      -2.09254724       0.00000000
Si      -0.76035205      -2.13996845      -0.70386501       0.00000000
H        0.16751007       2.25034607      -2.13172043       0.00000000
Si      -0.95210164      -0.28217538      -3.51839304       0.00000000
Si      -2.49500900       0.25658379       2.69526096       0.00000000
Si       1.26561898      -3.11520189      -1.50955118       0.00000000
Si       3.03075453      -2.10028601      -0.31277388       0.00000000
Si      -2.46083258      -1.70745266      -2.25448250       0.00000000
