10
Lattice="16.2900001489832 0.0 0.0 0.0 16.2900001489832 0.0 0.0 0.0 29.1250468810149" Properties=species:S:1:pos:R:3:initial_magmoms:R:1 pbc="T T T"
Si       1.36570474      -1.04889682      -1.56092776       0.00000000
Si       1.18278433       1.55501083       1.26367753       0.00000000
Si      -1.66504979       1.05138919      -1.24815388       0.00000000
Si      -0.65143711      -2.19846584       0.78987127       0.00000000
Si      -2.42540183      -1.08857926      -1.95201889       0.00000000
Si      -0.39943080      -2.06381270      -2.75770506       0.00000000
Si      -1.01662633      -1.72388927       2.98665706       0.00000000
Si       2.53759106       0.21002697       2.60188606       0.00000000
Si       2.76545559      -2.40404564      -0.26713493       0.00000000
Si       2.51315606       2.90049969      -0.14807174       0.00000000
