10
Lattice="16.2900001489832 0.0 0.0 0.0 16.2900001489832 0.0 0.0 0.0 29.1250468810149" Properties=species:S:1:pos:R:3:initial_magmoms:R:1 pbc="T T T"
Si      -2.21084624      -0.68242069      -0.24936865       0.00000000
Si       0.00224802       1.13060746       2.06720845       0.00000000
Si       1.39188277      -1.88427246       0.26669805       0.00000000
Si       0.32788512       1.36526491      -1.92653448       0.00000000
Si      -1.57219678       2.88458436       1.66903994       0.00000000
Si       1.04686057      -3.00257283      -1.89997243       0.00000000
Si      -3.68632929       1.11954655      -0.38223712       0.00000000
Si       0.59070799       3.59396499      -1.35160605       0.00000000
Si      -2.71482626      -1.47076221      -2.36812844       0.00000000
Si       3.69352133      -1.21872007       0.68207947       0.00000000
