10
Lattice="16.2900001489832 0.0 0.0 0.0 16.2900001489832 0.0 0.0 0.0 29.1250468810149" Properties=species:S:1:pos:R:3:initial_magmoms:R:1 pbc="T T T"
H       -0.47113938      -0.25438464       1.30876311       0.00000000
Si      -1.64892269      -0.15429888      -1.58929556       0.00000000
Si       0.74765725       2.16582068      -0.23920401       0.00000000
Si       1.61544673      -1.53407818      -0.62234400       0.00000000
Si      -0.03603348      -2.24253029       2.77287921       0.00000000
Si       1.78130337      -2.78524794       1.35495543       0.00000000
Si       2.55489104       2.01197792      -1.65348716       0.00000000
Si      -0.59074057       0.66165094      -3.56161461       0.00000000
Si       1.65611309       2.75649609       1.82937332       0.00000000
Si      -0.98409520       3.38155968      -1.26268728       0.00000000
