10
Lattice="16.2900001489832 0.0 0.0 0.0 16.2900001489832 0.0 0.0 0.0 29.1250468810149" Properties=species:S:1:pos:R:3:initial_magmoms:R:1 pbc="T T T"
Si       1.35011766      -1.38515500       1.36544045       0.00000000
Si       1.50910073       1.21573900      -1.36881895       0.00000000
Si      -1.78794155      -0.90658738      -1.30121972       0.00000000
Si      -1.38833155       1.41639922       1.34947992       0.00000000
H       -1.27526266      -1.27148338      -2.56932426       0.00000000
Si       2.67966430       2.57176748       0.15611025       0.00000000
Si      -3.34717149       0.94007962      -1.43702981       0.00000000
Si      -2.56795562       2.77625586      -0.25868867       0.00000000
Si       0.24609303       2.59959080      -2.76676295       0.00000000
H       -0.34515252      -3.18479277      -2.09068324       0.00000000
