10
Lattice="16.2900001489832 0.0 0.0 0.0 16.2900001489832 0.0 0.0 0.0 29.1250468810149" Properties=species:S:1:pos:R:3:initial_magmoms:R:1 pbc="T T T"
Si       1.34236117      -1.37657017       1.28275444       0.00000000
Si      -1.32662503      -1.39171987      -1.33433490       0.00000000
Si       1.40523999       1.30816846      -1.34374229       0.00000000
Si      -1.27140193       1.32300865       1.48354251       0.00000000
Si      -2.62542674       2.66159054       0.10467542       0.00000000
Si       2.63807593      -0.02420694       2.67510643       0.00000000
Si       0.02982699       2.68174127      -2.65498102       0.00000000
Si      -2.68203449      -0.02821428      -2.67184443       0.00000000
Si      -2.64274301      -2.74854657       0.04575545       0.00000000
Si       0.05256783      -2.72174951       2.69395034       0.00000000
