10
Lattice="16.2900001489832 0.0 0.0 0.0 16.2900001489832 0.0 0.0 0.0 29.1250468810149" Properties=species:S:1:pos:R:3:initial_magmoms:R:1 pbc="T T T"
Si      -1.33809319       1.33239169       1.38367273       0.00000000
Si      -1.35356869      -1.35788554      -1.34971292       0.00000000
Si       1.35402481      -1.33858189       1.37886709       0.00000000
Si       1.32724405       1.37223703      -1.38276985       0.00000000
Si       2.62542674      -2.66159054      -0.10467542       0.00000000
Si       2.78032836       0.10422342       2.55391711       0.00000000
Si      -2.70835913       0.02415807      -2.65911678       0.00000000
Si       0.04632876       2.69609276       2.69205721       0.00000000
Si      -2.67685427       2.72028341       0.02350391       0.00000000
Si       2.65525373       0.02015073      -2.75965644       0.00000000
