10
Lattice="16.2900001489832 0.0 0.0 0.0 16.2900001489832 0.0 0.0 0.0 29.1250468810149" Properties=species:S:1:pos:R:3:initial_magmoms:R:1 pbc="T T T"
Si       1.34526079       1.27037566       1.42641373       0.00000000
Si      -1.35187453      -1.43907490       1.32285963       0.00000000
Si       1.38833155      -1.41639922      -1.34947992       0.00000000
Si      -1.17962407       1.35985663      -1.60816859       0.00000000
Si      -1.95883994      -0.47631960      -2.78650974       0.00000000
Si      -0.39960999      -2.32298660      -2.65069964       0.00000000
Si       2.75375839       2.58364289       0.10336479       0.00000000
Si      -0.04302189       2.61389342       2.74530944       0.00000000
Si      -2.71616204      -0.09110997       2.70639547       0.00000000
Si       2.68136660      -0.10937106       2.78938729       0.00000000
