10
Lattice="16.2900001489832 0.0 0.0 0.0 16.2900001489832 0.0 0.0 0.0 29.1250468810149" Properties=species:S:1:pos:R:3:initial_magmoms:R:1 pbc="T T T"
Si      -1.21311631      -1.32431185      -1.48333864       0.00000000
Si       1.20078380      -1.38693061       1.45016521       0.00000000
Si       1.41189178       1.31325094      -1.37650797       0.00000000
Si      -1.44098083       1.28976076       1.38568236       0.00000000
Si       2.60185674       2.69610905       0.09940378       0.00000000
Si       2.51502127      -2.81520525       0.15343075       0.00000000
Si      -2.73259866      -2.61071687      -0.26136817       0.00000000
Si      -2.61286715       0.03083697      -2.77713147       0.00000000
Si       2.52137600      -0.05747112       2.86116888       0.00000000
Si       0.04191417       2.69115689      -2.70772648       0.00000000
