10
Lattice="16.2900001489832 0.0 0.0 0.0 16.2900001489832 0.0 0.0 0.0 29.1250468810149" Properties=species:S:1:pos:R:3:initial_magmoms:R:1 pbc="T T T"
Si       1.35540946       1.40597362       1.27707506       0.00000000
Si      -1.29489211       1.41876127      -1.33410190       0.00000000
Si       1.32800968      -1.35208630      -1.37688659       0.00000000
Si      -1.32724405      -1.37223703       1.38276985       0.00000000
Si       2.75817591       0.00632052       2.49389039       0.00000000
Si      -2.66375711       0.04468347      -2.59753187       0.00000000
Si      -0.02764413       2.74289394       2.63779725       0.00000000
Si       2.70982315       0.01780497      -2.68083242       0.00000000
Si      -2.68081274      -2.73012257       0.03305693       0.00000000
Si      -0.05727564      -2.68205078      -2.74045139       0.00000000
