10
Lattice="16.2900001489832 0.0 0.0 0.0 16.2900001489832 0.0 0.0 0.0 29.1250468810149" Properties=species:S:1:pos:R:3:initial_magmoms:R:1 pbc="T T T"
Si      -1.32294349       1.37462840      -1.31913162       0.00000000
Si       1.42861672       1.34269349       1.29728784       0.00000000
Si       1.38305359      -1.33692031      -1.36072219       0.00000000
Si      -1.25327116      -1.41903820       1.43702981       0.00000000
Si       2.28380915      -0.48959595       2.48966726       0.00000000
Si       0.65282176      -2.23503689       2.61510883       0.00000000
Si      -2.63391383       2.64829790       0.14265448       0.00000000
Si      -2.66605400      -0.01117494      -2.63004998       0.00000000
Si       0.02764413      -2.74289394      -2.63779725       0.00000000
Si       0.04641021       2.71047683      -2.69144558       0.00000000
