10
Lattice="16.2900001489832 0.0 0.0 0.0 16.2900001489832 0.0 0.0 0.0 29.1250468810149" Properties=species:S:1:pos:R:3:initial_magmoms:R:1 pbc="T T T"
Si       0.61449139       2.20040435       0.04482345       0.00000000
Si      -1.78030154      -0.08891082      -1.51890032       0.00000000
Si       0.06330294       0.09946674       2.35944917       0.00000000
Si       1.63549972      -1.94874014      -1.82174256       0.00000000
Si      -0.27059319      -1.13274145      -2.99982158       0.00000000
Si       2.54249435       1.79595786       1.31793750       0.00000000
Si       1.60912621      -3.03212289       0.27846457       0.00000000
Si      -3.19020105      -1.29927412      -0.05979372       0.00000000
Si      -1.42969186       1.87386804       2.73024014       0.00000000
Si      -1.98449669      -2.67962357       1.43871907       0.00000000
