10
Lattice="16.2900001489832 0.0 0.0 0.0 16.2900001489832 0.0 0.0 0.0 29.1250468810149" Properties=species:S:1:pos:R:3:initial_magmoms:R:1 pbc="T T T"
Si      -0.15367986      -2.35186877       0.04543507       0.00000000
Si      -0.00096111       1.48181986      -1.84932398       0.00000000
Si       2.23514766       0.02849121       0.87299416       0.00000000
Si      -2.19146114       0.66152062       0.72367004       0.00000000
Si      -0.44665551      -0.25306515       3.42816364       0.00000000
Si      -1.68352265       1.59156559       2.78761649       0.00000000
Si      -0.60735637      -2.89261533      -2.20092154       0.00000000
Si       2.72901485       2.35897121       1.06111283       0.00000000
Si      -3.36502533      -1.26462529       1.29478308       0.00000000
Si       3.51275934      -1.39777975      -0.66990520       0.00000000
