10
Lattice="16.2900001489832 0.0 0.0 0.0 16.2900001489832 0.0 0.0 0.0 29.1250468810149" Properties=species:S:1:pos:R:3:initial_magmoms:R:1 pbc="T T T"
Si      -1.35480673       1.34498386      -1.33820853       0.00000000
Si       1.30409596       1.41033934       1.35839219       0.00000000
Si      -1.48366063      -1.23329962       1.37546529       0.00000000
Si       1.44098083      -1.28976076      -1.38568236       0.00000000
Si      -2.53759106      -0.21002697      -2.60188606       0.00000000
Si       2.64176464      -2.67669137       0.06448285       0.00000000
Si      -0.15501564      -2.64644084       2.70642751       0.00000000
Si       2.61208315       0.05341491       2.76604648       0.00000000
Si       2.64341954       2.78536197      -0.01345577       0.00000000
Si      -0.02443500       2.69047271      -2.74995780       0.00000000
