10
Lattice="16.2900001489832 0.0 0.0 0.0 16.2900001489832 0.0 0.0 0.0 29.1250468810149" Properties=species:S:1:pos:R:3:initial_magmoms:R:1 pbc="T T T"
Si       1.84207322      -0.99126280       1.03011624       0.00000000
Si       0.43481268       0.88993900      -2.11107077       0.00000000
Si      -0.95835700       1.78777865       1.15907959       0.00000000
Si      -1.68526568      -1.74011411      -0.08312288       0.00000000
Si       0.51363999      -2.34693290       2.42368155       0.00000000
Si      -2.33119513       0.44634600       2.47685806       0.00000000
Si      -1.77689693       0.53486586      -2.91282506       0.00000000
Si      -1.82726561      -1.76676455      -2.40788413       0.00000000
Si       1.71189983      -0.64112554      -3.37198143       0.00000000
Si      -3.62198135      -0.84186721       0.97513569       0.00000000
