10
Lattice="16.2900001489832 0.0 0.0 0.0 16.2900001489832 0.0 0.0 0.0 29.1250468810149" Properties=species:S:1:pos:R:3:initial_magmoms:R:1 pbc="T T T"
Si      -0.14199993      -0.02665044      -2.32476124       0.00000000
Si      -1.93671567       0.89824690       1.05825858       0.00000000
Si       0.89682967      -1.95287780       1.04553093       0.00000000
Si       1.68526568       1.74011411       0.08312288       0.00000000
H       -1.27350008      -0.67903237      -2.87059375       0.00000000
Si       2.19890567      -0.60681880       2.50680444       0.00000000
Si      -0.64592946       2.18646011       2.55998095       0.00000000
Si      -0.09163125       2.27497997      -2.82970218       0.00000000
H       -2.40790637      -2.49018716      -1.21611633       0.00000000
Si       3.52733889       0.74885131       1.11323912       0.00000000
