10
Lattice="16.2900001489832 0.0 0.0 0.0 16.2900001489832 0.0 0.0 0.0 29.1250468810149" Properties=species:S:1:pos:R:3:initial_magmoms:R:1 pbc="T T T"
Si       1.39251808      -1.33141429      -1.29288996       0.00000000
Si       1.31209435       1.31551525       1.42934080       0.00000000
Si      -1.48630776      -1.22790763       1.35108180       0.00000000
Si      -1.30662091       1.41944545      -1.34950905       0.00000000
Si      -0.48694068       2.26214345       2.63377799       0.00000000
Si      -2.29040986       0.58109689       2.64449601       0.00000000
Si       0.03914487      -2.65746917      -2.66100991       0.00000000
Si       2.75661012       0.07687251      -2.56795538       0.00000000
Si      -2.78202252      -2.58027086      -0.04127019       0.00000000
Si       2.66729204      -0.09917352       2.71489124       0.00000000
