10
Lattice="16.2900001489832 0.0 0.0 0.0 16.2900001489832 0.0 0.0 0.0 29.1250468810149" Properties=species:S:1:pos:R:3:initial_magmoms:R:1 pbc="T T T"
Si      -1.13074430       1.69552838       1.13864371       0.00000000
Si      -1.39668800      -1.30645801      -1.35291668       0.00000000
Si       1.37243251      -1.28345653       1.40904064       0.00000000
Si       1.34560288       1.48212937      -1.26321153       0.00000000
Si      -2.61009785       0.59911363       2.58563429       0.00000000
Si       2.66773187       0.05540229      -2.61100220       0.00000000
Si       0.36509148       3.57283686       1.16264275       0.00000000
Si       2.56064141       0.17953209       2.76795708       0.00000000
Si      -0.04895145      -2.69280870      -2.65273840       0.00000000
Si       2.69477327      -2.70648090       0.08073463       0.00000000
