10
Lattice="16.2900001489832 0.0 0.0 0.0 16.2900001489832 0.0 0.0 0.0 29.1250468810149" Properties=species:S:1:pos:R:3:initial_magmoms:R:1 pbc="T T T"
Si       1.03399147       1.10783404      -1.73393054       0.00000000
Si      -2.19833552      -0.49464585      -0.53738624       0.00000000
Si      -0.19782576       1.72688663       1.59564482       0.00000000
Si       1.23908257      -2.01119600       0.15232400       0.00000000
H       -1.45854145      -0.35333010       2.04338416       0.00000000
H       -1.49824018       1.77267782       2.16364148       0.00000000
H        3.47245788      -0.34334433      -0.33939417       0.00000000
Si       2.14200470      -1.85922659       2.28640356       0.00000000
Si       2.16494102      -0.51684912      -2.92086358       0.00000000
Si      -3.45661911       0.81181216       0.94691352       0.00000000
