10
Lattice="16.2900001489832 0.0 0.0 0.0 16.2900001489832 0.0 0.0 0.0 29.1250468810149" Properties=species:S:1:pos:R:3:initial_magmoms:R:1 pbc="T T T"
Si       1.49016849       1.36647037      -1.10418878       0.00000000
Si      -1.31423746       1.42827463       1.29673446       0.00000000
Si       1.33407771      -1.32727663       1.39327409       0.00000000
Si      -1.17056357      -1.35602848      -1.52492920       0.00000000
Si      -2.67966430      -2.57176748      -0.15611025       0.00000000
Si       0.51553778      -2.58018941      -2.67863056       0.00000000
Si      -2.51502127       2.81520525      -0.15343075       0.00000000
Si      -2.72273506       0.11500740       2.61978340       0.00000000
Si       3.22352224       0.05781321      -2.00310422       0.00000000
Si      -2.43357127       0.02782332      -2.92287320       0.00000000
