10
Lattice="16.2900001489832 0.0 0.0 0.0 16.2900001489832 0.0 0.0 0.0 29.1250468810149" Properties=species:S:1:pos:R:3:initial_magmoms:R:1 pbc="T T T"
Si      -1.32535441       1.48486609       1.11030795       0.00000000
Si      -1.15118173      -1.37117818      -1.45505822       0.00000000
Si       1.57556881      -1.35480673       1.09050234       0.00000000
Si       1.64551808       0.93315637      -1.39174037       0.00000000
Si       2.31140441      -1.45314946      -1.24792088       0.00000000
Si       0.06633288       1.88206517      -2.86555511       0.00000000
Si      -1.82462663       0.35929224      -2.91521332       0.00000000
Si      -2.63499549       0.02008557       2.35686869       0.00000000
Si       0.15164361      -2.75398743       2.30698331       0.00000000
Si       0.58217203      -2.67983534      -2.35397366       0.00000000
