10
Lattice="10.86 0.0 0.0 0.0 10.86 0.0 0.0 0.0 10.86" Properties=species:S:1:pos:R:3:initial_magmoms:R:1 pbc="T T T"
Si      -1.42359396      -1.23956040      -1.24683660       0.00000000
Si       1.29140604      -1.23956040       1.46816340       0.00000000
Si       1.29140604       1.47543960      -1.24683660       0.00000000
Si      -0.06609396      -2.59706040      -2.60433660       0.00000000
Si       2.64890604      -2.59706040       0.11066340       0.00000000
Si       2.64890604       0.11793960      -2.60433660       0.00000000
Si      -2.78109396      -2.59706040       0.11066340       0.00000000
Si      -2.78109396       0.11793960      -2.60433660       0.00000000
Si      -0.06609396      -2.59706040       2.82566340       0.00000000
Si      -0.06609396       2.83293960      -2.60433660       0.00000000
