10
Lattice="10.86 0.0 0.0 0.0 10.86 0.0 0.0 0.0 10.86" Properties=species:S:1:pos:R:3:initial_magmoms:R:1 pbc="T T T"
Si      -1.25735994      -1.39266468      -1.31141016       0.00000000
Si      -1.25735994       1.32233532       1.40358984       0.00000000
Si       1.45764006       1.32233532      -1.31141016       0.00000000
Si      -2.61485994      -0.03516468      -2.66891016       0.00000000
Si      -2.61485994       2.67983532       0.04608984       0.00000000
Si       0.10014006       2.67983532      -2.66891016       0.00000000
Si      -2.61485994      -2.75016468       0.04608984       0.00000000
Si      -2.61485994      -0.03516468       2.76108984       0.00000000
Si       0.10014006      -2.75016468      -2.66891016       0.00000000
Si       0.10014006       2.67983532       2.76108984       0.00000000
