10
Lattice="10.86 0.0 0.0 0.0 10.86 0.0 0.0 0.0 10.86" Properties=species:S:1:pos:R:3:initial_magmoms:R:1 pbc="T T T"
Si       1.42134594      -0.85348740      -1.79150904       0.00000000
Si       1.42134594       1.86151260       0.92349096       0.00000000
Si      -1.33627956      -1.21781868       1.83220146       0.00000000
Si      -1.29365406       1.86151260      -1.79150904       0.00000000
Si      -2.43040284      -2.12371644      -0.33212052       0.00000000
Si       2.90684190       0.25750146       2.11402932       0.00000000
Si       3.02004654      -1.96868994      -0.77248266       0.00000000
Si      -2.60985348       0.68415828       2.51404656       0.00000000
Si       0.06384594      -2.21098740      -3.14900904       0.00000000
Si       0.06384594       3.21901260       2.28099096       0.00000000
