10
Lattice="10.86 0.0 0.0 0.0 10.86 0.0 0.0 0.0 10.86" Properties=species:S:1:pos:R:3:initial_magmoms:R:1 pbc="T T T"
Si      -1.27002270      -1.41377652       1.35814074       0.00000000
Si       1.44497730       1.30122348       1.35814074       0.00000000
Si       1.44497730      -1.41377652      -1.35685926       0.00000000
Si      -2.80987296       2.39263176      -0.03088584       0.00000000
Si       0.21547326       2.41221234      -2.88132090       0.00000000
Si      -2.68299558      -2.61071142      -0.42125940       0.00000000
Si      -2.62752270      -0.05627652       2.71564074       0.00000000
Si       0.28644336      -2.96000160      -2.36376588       0.00000000
Si       0.08747730       2.65872348       2.71564074       0.00000000
Si       2.80247730       2.65872348       0.00064074       0.00000000
