10
Lattice="10.86 0.0 0.0 0.0 10.86 0.0 0.0 0.0 10.86" Properties=species:S:1:pos:R:3:initial_magmoms:R:1 pbc="T T T"
Si       1.22950404      -1.11098886      -1.19053836       0.00000000
Si      -1.48549596       1.60401114      -1.19053836       0.00000000
Si       1.22950404       1.60401114       1.52446164       0.00000000
Si       2.58700404      -2.46848886       0.16696164       0.00000000
Si      -2.90684190      -0.25750146      -2.11402932       0.00000000
Si       2.58700404       0.24651114      -2.54803836       0.00000000
Si       0.11320464      -2.22619140      -2.88651198       0.00000000
Si      -0.21547326      -2.41221234       2.88132090       0.00000000
Si       2.58700404       0.24651114       2.88196164       0.00000000
Si      -0.12799596       2.96151114      -2.54803836       0.00000000
