10
Lattice="16.28999089631971 0.0 0.0 0.0 16.28999089631971 0.0 0.0 0.0 34.279985188174585" Properties=species:S:1:pos:R:3:initial_magmoms:R:1 pbc="T T T"
Si      -0.86148036      -1.85350063       1.18513002       0.00000000
Si      -1.78067619       1.61347563      -0.20193977       0.00000000
Si       1.97688924       0.93468762       1.03747576       0.00000000
Si      -2.16191106      -0.45517518       2.55119848       0.00000000
Si       0.56703861       2.25129429       2.53070589       0.00000000
Si      -0.80583372       3.49638786       1.01927308       0.00000000
Si      -2.48614722      -2.86552503      -0.28438318       0.00000000
Si       1.03439871       1.94575905      -3.10456486       0.00000000
Si      -3.59443737       0.76932783       1.09661563       0.00000000
Si       3.69564714       0.84374055      -1.28230839       0.00000000
