10
Lattice="16.28999089631971 0.0 0.0 0.0 16.28999089631971 0.0 0.0 0.0 34.279985188174585" Properties=species:S:1:pos:R:3:initial_magmoms:R:1 pbc="T T T"
Si       1.34379468       1.36068578      -1.35879767       0.00000000
Si      -1.35692442       1.35446300       1.35412873       0.00000000
Si       1.35610992      -1.35757988       1.35560277       0.00000000
Si      -1.35244467      -1.37457794      -1.34445491       0.00000000
Si      -2.63900118       0.00145144      -2.66965475       0.00000000
Si       2.64422538      -0.03763967      -2.72486613       0.00000000
Si      -0.08873163       2.58518879      -2.81338052       0.00000000
Si      -0.00047241       2.71350512       2.71171974       0.00000000
Si       2.71406061      -0.00111261       2.71240534       0.00000000
Si      -2.71572382      -0.00093016       2.71182258       0.00000000
