10
Lattice="16.28999089631971 0.0 0.0 0.0 16.28999089631971 0.0 0.0 0.0 34.279985188174585" Properties=species:S:1:pos:R:3:initial_magmoms:R:1 pbc="T T T"
Si      -2.15016597      -0.41691716       0.81953206       0.00000000
Si       0.47874681       2.29356684       0.24602759       0.00000000
Si       1.38621384      -1.13222735       1.68609629       0.00000000
Si       0.10671579      -0.10636718      -2.47127979       0.00000000
Si      -1.75317867      -2.75368508       0.48033142       0.00000000
Si       3.28179969      -0.33229061       0.63328880       0.00000000
Si       2.89372302       1.95522354       0.31061112       0.00000000
Si      -0.49730112       3.09998700      -1.78458275       0.00000000
Si       0.28776285      -3.83742620      -0.01984812       0.00000000
Si      -2.35071216       0.20298643       3.15780544       0.00000000
