10
Lattice="16.28999089631971 0.0 0.0 0.0 16.28999089631971 0.0 0.0 0.0 34.279985188174585" Properties=species:S:1:pos:R:3:initial_magmoms:R:1 pbc="T T T"
Si       1.54676808      -1.70964757      -0.12059706       0.00000000
Si       0.45781416       1.34789487       1.85622796       0.00000000
Si       0.21742263       1.65672069      -1.65736965       0.00000000
Si      -2.00073780      -1.22411042      -0.33069920       0.00000000
Si      -1.74144987       1.90274856       2.36288642       0.00000000
Si       2.05130196      -1.54624258      -2.40734759       0.00000000
Si      -1.76039514      -2.91217537       1.29900648       0.00000000
Si      -1.53792261       3.15714372      -1.21920263       0.00000000
Si       0.43688151      -3.65219749       0.74692701       0.00000000
Si       2.15422218       2.90000607      -1.06220021       0.00000000
