10
Lattice="16.28999089631971 0.0 0.0 0.0 16.28999089631971 0.0 0.0 0.0 34.279985188174585" Properties=species:S:1:pos:R:3:initial_magmoms:R:1 pbc="T T T"
Si      -1.16895411       1.76702354       1.14529495       0.00000000
Si      -0.25901100       0.04165842      -2.41008999       0.00000000
Si      -1.70295660      -1.69017777       0.55653587       0.00000000
Si       1.84269222       1.78155422       0.01868260       0.00000000
Si       1.48822182      -1.87888113       1.00371853       0.00000000
Si       1.58340429      -1.34530476      -2.67490302       0.00000000
Si       1.82374695      -3.03336972      -1.04519733       0.00000000
Si      -1.28702403      -2.12552802       2.81778208       0.00000000
Si      -3.78697051      -0.71029613       0.21006787       0.00000000
Si      -3.29829331       1.01734145       1.78701663       0.00000000
