10
Lattice="16.28999089631971 0.0 0.0 0.0 16.28999089631971 0.0 0.0 0.0 34.279985188174585" Properties=species:S:1:pos:R:3:initial_magmoms:R:1 pbc="T T T"
Si      -0.40216426      -0.98029587       2.08840642       0.00000000
Si       0.91275313       2.15946593       0.04384413       0.00000000
Si       1.71425371      -1.26844596      -0.97889980       0.00000000
Si      -2.04234150      -0.34293871      -1.17847799       0.00000000
Si      -0.97427297       2.08405952      -2.29117265       0.00000000
Si      -1.00389292      -3.11918544       1.15897267       0.00000000
Si      -2.34359247      -2.72876301      -0.90482071       0.00000000
Si      -0.66151735       3.60482876       1.12181314       0.00000000
Si      -1.99099542       0.35016007       3.28594410       0.00000000
Si       1.59346337      -1.30340430       3.30222710       0.00000000
