10
Lattice="16.28999089631971 0.0 0.0 0.0 16.28999089631971 0.0 0.0 0.0 34.279985188174585" Properties=species:S:1:pos:R:3:initial_magmoms:R:1 pbc="T T T"
Si       0.34125921       1.98972576      -1.20446223       0.00000000
Si       2.06369865      -1.04021424      -0.49298074       0.00000000
Si      -0.55332243       0.62444457       2.21414548       0.00000000
Si      -2.00430531      -0.31179060      -1.22842396       0.00000000
Si       3.56480586       0.24026121       0.73592313       0.00000000
Si      -2.85109209       1.20200652       1.99753013       0.00000000
Si      -3.45786201       1.33620354      -0.27886784       0.00000000
Si       2.54513331      -0.34318143      -2.70424670       0.00000000
Si       1.04080068      -2.48745042      -2.66091678       0.00000000
Si       2.44758879       1.95988248      -2.20848928       0.00000000
