10
Lattice="16.28999089631971 0.0 0.0 0.0 16.28999089631971 0.0 0.0 0.0 34.279985188174585" Properties=species:S:1:pos:R:3:initial_magmoms:R:1 pbc="T T T"
Si      -1.35687555       1.35568638      -1.35961353       0.00000000
Si       1.35796698      -1.36026387      -1.35831089       0.00000000
Si      -1.36278882      -1.34848620       1.36766933       0.00000000
Si       1.35624024       1.35912357       1.37216001       0.00000000
Si       0.07723089      -2.64562632       2.72063254       0.00000000
Si      -2.71316466       2.71696023      -0.00164544       0.00000000
Si       2.71759554       2.71265967       0.00126836       0.00000000
Si       0.00149868       2.71352304      -2.71686174       0.00000000
Si      -2.71358820      -0.00141723      -2.71703314       0.00000000
Si      -2.71264338      -2.71805166       0.00140548       0.00000000
