10
Lattice="16.28999089631971 0.0 0.0 0.0 16.28999089631971 0.0 0.0 0.0 34.279985188174585" Properties=species:S:1:pos:R:3:initial_magmoms:R:1 pbc="T T T"
Si      -1.67381379      -0.82971486      -1.40486314       0.00000000
Si      -0.78925050       0.33267438       2.19374888       0.00000000
Si       1.48737474       1.68067188      -0.73914545       0.00000000
Si       1.92784005      -1.40499621      -0.09989193       0.00000000
Si       0.07442901       3.46429656      -0.82748502       0.00000000
Si      -0.86895747      -1.95768333       2.93779637       0.00000000
Si      -3.05396775      -2.03361102       0.09821221       0.00000000
Si       2.26688382       0.65572137      -2.84808560       0.00000000
Si      -0.44885466      -2.31619365      -2.85610712       0.00000000
Si       2.67268401       2.23953291       1.38090142       0.00000000
