10
Lattice="16.28999089631971 0.0 0.0 0.0 16.28999089631971 0.0 0.0 0.0 34.279985188174585" Properties=species:S:1:pos:R:3:initial_magmoms:R:1 pbc="T T T"
Si       0.24055443       2.29895883      -0.29463664       0.00000000
Si       1.67361831      -0.80780481       1.45957403       0.00000000
Si      -0.49728483      -0.60522237      -2.23327372       0.00000000
Si      -1.88465526      -1.10195334       0.95185288       0.00000000
Si       0.75085497      -2.85866694       2.11946411       0.00000000
Si      -1.14508926      -3.35513727       0.86796971       0.00000000
Si      -1.82423565       2.94708906      -1.21892839       0.00000000
Si       0.37489806       3.28636089       1.81138971       0.00000000
Si      -3.90093861      -0.51570882      -0.11994574       0.00000000
Si      -0.09554085      -2.86948350      -2.69382558       0.00000000
