10
Lattice="16.28999089631971 0.0 0.0 0.0 16.28999089631971 0.0 0.0 0.0 34.279985188174585" Properties=species:S:1:pos:R:3:initial_magmoms:R:1 pbc="T T T"
Si      -1.35716877      -1.35707103      -1.35669973       0.00000000
Si       1.35767376       1.35790492      -1.35669973       0.00000000
Si      -1.35749457       1.36029691       1.35697397       0.00000000
Si       1.35826020      -1.35583299       1.36074477       0.00000000
Si      -2.69759142      -0.01298313       2.71833578       0.00000000
Si      -2.71450044       0.00057015      -2.71394794       0.00000000
Si       0.00074934      -2.71467963      -2.71425646       0.00000000
Si      -0.00017919       2.71557951      -2.71363942       0.00000000
Si       2.71437012      -2.71515204       0.00071988       0.00000000
Si       2.71521720       0.00011403      -2.71432502       0.00000000
