10
Lattice="16.28999089631971 0.0 0.0 0.0 16.28999089631971 0.0 0.0 0.0 34.279985188174585" Properties=species:S:1:pos:R:3:initial_magmoms:R:1 pbc="T T T"
Si       1.41294573      -1.78362468       0.08833957       0.00000000
Si      -0.93428037      -0.04372236      -2.13369031       0.00000000
Si      -1.55730771       1.24636419       1.39245378       0.00000000
Si       0.87840567       1.82511531       1.36684661       0.00000000
Si      -2.71125873       0.94604175      -0.68296053       0.00000000
Si      -0.07442901      -3.46429656       0.82748502       0.00000000
Si       2.59825500      -1.22476365       2.20838644       0.00000000
Si      -1.24465374       3.32713476      -0.73914545       0.00000000
Si       0.79431669       1.05251319      -3.41799067       0.00000000
Si       1.87900263       0.80800029       3.16949492       0.00000000
