10
Lattice="16.28999089631971 0.0 0.0 0.0 16.28999089631971 0.0 0.0 0.0 34.279985188174585" Properties=species:S:1:pos:R:3:initial_magmoms:R:1 pbc="T T T"
Si      -1.29883428       1.37378457      -1.45837422       0.00000000
Si       1.38557853      -1.32639696      -1.45120970       0.00000000
Si      -1.72859706      -1.09623555       1.28430036       0.00000000
Si       1.89640035       0.80775594       1.31847753       0.00000000
Si      -0.79431669      -1.05251319       3.41799067       0.00000000
Si       2.63875194       2.61061911      -0.10510249       0.00000000
Si      -2.63769309       2.68965819      -0.08450021       0.00000000
Si       2.76835518      -2.61799848      -0.05532793       0.00000000
Si      -2.67172290       0.02614545      -2.81627376       0.00000000
Si       0.04189788      -2.68167609      -2.81867336       0.00000000
