10
Lattice="16.28999089631971 0.0 0.0 0.0 16.28999089631971 0.0 0.0 0.0 34.279985188174585" Properties=species:S:1:pos:R:3:initial_magmoms:R:1 pbc="T T T"
Si       1.48276467      -1.21801959      -1.36314437       0.00000000
Si      -1.25547030       1.49965970      -1.34830113       0.00000000
Si      -0.74235159      -1.80286317       1.42358002       0.00000000
Si       1.42641756       1.23910278       1.50828591       0.00000000
Si      -0.80910801       1.03567326       2.47553051       0.00000000
Si      -2.63875194      -2.61061911       0.10510249       0.00000000
Si       0.11826540      -2.57968440      -2.71086274       0.00000000
Si      -2.59748937       0.13644550      -2.71463354       0.00000000
Si      -0.70128450       3.32440523       1.61246284       0.00000000
Si       2.85720084      -2.54365092       0.02207632       0.00000000
