10
Lattice="16.28999089631971 0.0 0.0 0.0 16.28999089631971 0.0 0.0 0.0 34.279985188174585" Properties=species:S:1:pos:R:3:initial_magmoms:R:1 pbc="T T T"
Si      -1.00059696       1.01711502      -1.80264831       0.00000000
Si      -1.39932729      -0.66992625       1.76408330       0.00000000
Si       1.83699072       1.31852889       0.65738764       0.00000000
Si       0.71925237      -2.03276394      -0.96110848       0.00000000
Si      -1.58037435       3.06113276      -0.68734837       0.00000000
Si       0.93678903       1.83124035      -2.95661609       0.00000000
Si       3.20451993      -0.23159493       1.73803050       0.00000000
Si      -1.45603278      -3.02487381       1.58514168       0.00000000
Si       2.67744069       2.22804846      -1.29725820       0.00000000
Si       0.66362202      -3.59662023       0.81792090       0.00000000
