10
Lattice="16.28999089631971 0.0 0.0 0.0 16.28999089631971 0.0 0.0 0.0 34.279985188174585" Properties=species:S:1:pos:R:3:initial_magmoms:R:1 pbc="T T T"
Si       1.15399989       0.32122251       1.96887205       0.00000000
Si       1.39932729       0.66992625      -1.76408330       0.00000000
Si      -0.05670549      -2.35494756      -0.17894162       0.00000000
Si      -2.04094152       1.08374112       0.50017954       0.00000000
Si       1.09845099       2.70519885       1.70594442       0.00000000
Si      -2.99452554       0.41177862      -1.51623887       0.00000000
Si      -0.48019662      -0.52580862       3.50729008       0.00000000
Si      -2.54498670       0.12232161       2.58299833       0.00000000
Si       2.06294931      -2.92669398      -0.94616240       0.00000000
Si       2.11857966      -1.36283769      -2.72519179       0.00000000
