10
Lattice="16.28999089631971 0.0 0.0 0.0 16.28999089631971 0.0 0.0 0.0 34.279985188174585" Properties=species:S:1:pos:R:3:initial_magmoms:R:1 pbc="T T T"
Si      -1.35860229       1.35588349       1.36239021       0.00000000
Si       1.35814617      -1.35979127       1.36067621       0.00000000
Si      -1.33936380      -1.37065653      -1.38470650       0.00000000
Si       1.36682874       1.33918624      -1.39520646       0.00000000
Si      -2.71285515       2.71372015       0.00401076       0.00000000
Si       2.71583622       2.71238437       0.00017140       0.00000000
Si       2.71414206      -2.71615129       0.00387364       0.00000000
Si       0.00071676       2.71284049       2.71908994       0.00000000
Si      -2.71332756      -2.71996315       0.00133692       0.00000000
Si      -2.71459818      -0.00208675       2.71956986       0.00000000
