10
Lattice="16.28999089631971 0.0 0.0 0.0 16.28999089631971 0.0 0.0 0.0 34.279985188174585" Properties=species:S:1:pos:R:3:initial_magmoms:R:1 pbc="T T T"
Si       1.35599589      -1.35636001      -1.35680257       0.00000000
Si       1.35783666       1.35751719       1.35789953       0.00000000
Si      -1.35734796      -1.35776095       1.35820805       0.00000000
Si      -1.35814617       1.35979127      -1.36067621       0.00000000
Si       2.71334385       0.01365738      -2.71570651       0.00000000
Si       2.71580364       2.71464849       0.00154260       0.00000000
Si       0.00019548      -2.71496230       2.71562766       0.00000000
Si      -2.71489140       0.00002994       2.71583334       0.00000000
Si       2.71609686      -2.71479940       0.00054848       0.00000000
Si       2.71523349       0.00016272       2.71590190       0.00000000
