10
Lattice="16.28999089631971 0.0 0.0 0.0 16.28999089631971 0.0 0.0 0.0 34.279985188174585" Properties=species:S:1:pos:R:3:initial_magmoms:R:1 pbc="T T T"
Si       1.35606105       1.35704660      -1.35625409       0.00000000
Si      -1.35711990       1.35398407       1.36077905       0.00000000
Si      -1.35933534      -1.35850049      -1.35618553       0.00000000
Si       1.35496962      -1.35954549       1.36047053       0.00000000
Si       0.00575037      -2.71057359       2.70897734       0.00000000
Si       2.71339272      -0.00101324      -2.71411934       0.00000000
Si      -0.00187335       2.71410133      -2.71360514       0.00000000
Si       2.71233387      -2.71601445      -0.00119980       0.00000000
Si       2.71440270       2.71481809       0.00010284       0.00000000
Si      -0.00179190      -2.71629138      -2.71381082       0.00000000
