10
Lattice="16.28999089631971 0.0 0.0 0.0 16.28999089631971 0.0 0.0 0.0 34.279985188174585" Properties=species:S:1:pos:R:3:initial_magmoms:R:1 pbc="T T T"
Si       1.35711990      -1.35398407      -1.36077905       0.00000000
Si      -1.36037790       1.35918873      -1.35978493       0.00000000
Si      -1.37536470      -1.34687838       1.36304153       0.00000000
Si       1.35521397       1.36006839       1.37270849       0.00000000
Si       2.71208952      -2.71352957      -0.00030852       0.00000000
Si      -2.71738377      -2.71009258      -0.00329088       0.00000000
Si      -0.00221544      -2.71248457      -2.71696458       0.00000000
Si       2.71318095       0.00306252      -2.71703314       0.00000000
Si      -2.71622718       2.71614573       0.00082272       0.00000000
Si      -2.71730232       0.00244350      -2.71717026       0.00000000
