10
Lattice="16.28999089631971 0.0 0.0 0.0 16.28999089631971 0.0 0.0 0.0 34.279985188174585" Properties=species:S:1:pos:R:3:initial_magmoms:R:1 pbc="T T T"
Si      -1.34921925      -1.35102810       1.34850681       0.00000000
Si      -1.35496962       1.35954549      -1.36047053       0.00000000
Si       1.35736425      -1.35646896      -1.36167033       0.00000000
Si       1.36207206       1.36658277       1.40273778       0.00000000
Si       0.02521692      -2.67665943       2.73372751       0.00000000
Si       2.71265967      -2.71254630       0.00020568       0.00000000
Si      -2.71208952       2.71352957       0.00030852       0.00000000
Si      -2.71371852      -2.71269291       0.00078844       0.00000000
Si       0.00078192      -2.71394724      -2.71686174       0.00000000
Si      -2.71430496       0.00104500      -2.71665606       0.00000000
