10
Lattice="16.28999089631971 0.0 0.0 0.0 16.28999089631971 0.0 0.0 0.0 34.279985188174585" Properties=species:S:1:pos:R:3:initial_magmoms:R:1 pbc="T T T"
Si      -1.25187021      -1.55271719       1.29304176       0.00000000
Si       1.45873692       1.10708469       1.57554328       0.00000000
Si      -1.20317940       1.41478650      -1.55387832       0.00000000
Si       1.51576821      -1.29222868      -1.52415755       0.00000000
Si      -3.37957227       0.53258526       1.39721870       0.00000000
Si       0.31900707      -2.87100566       2.43144643       0.00000000
Si      -2.48474628       2.84328918      -0.20653703       0.00000000
Si       2.73678516       2.61632061       0.00565620       0.00000000
Si      -1.99541097       1.94740434       2.64809606       0.00000000
Si      -2.67828777      -2.79181997      -0.21524415       0.00000000
