10
Lattice="16.28999089631971 0.0 0.0 0.0 16.28999089631971 0.0 0.0 0.0 34.279985188174585" Properties=species:S:1:pos:R:3:initial_magmoms:R:1 pbc="T T T"
Si      -0.90986166      -1.89798048      -1.08725890       0.00000000
Si      -1.85947092       1.41139818       0.42332377       0.00000000
Si       0.80177751       0.30937968       2.24558024       0.00000000
Si       1.24833528       0.64721799      -1.95663409       0.00000000
Si      -1.90448019      -0.94791510      -2.94262985       0.00000000
Si      -0.49842513       0.87444720      -3.53632525       0.00000000
Si       0.94278375      -3.20583942      -1.54071480       0.00000000
Si      -1.61815086       3.30631614      -0.95822896       0.00000000
Si       2.34613467       2.70308115      -1.51671879       0.00000000
Si      -0.04225626       2.31645429       3.30987154       0.00000000
