10
Lattice="16.28999089631971 0.0 0.0 0.0 16.28999089631971 0.0 0.0 0.0 34.279985188174585" Properties=species:S:1:pos:R:3:initial_magmoms:R:1 pbc="T T T"
Si      -1.35547461       1.35418770      -1.35776241       0.00000000
Si      -1.35607734      -1.35809730       1.35735105       0.00000000
Si       1.35899325       1.35684297       1.35693969       0.00000000
Si       1.35904212      -1.35855342      -1.36156749       0.00000000
Si       0.01379763       2.71867068      -2.70195337       0.00000000
Si      -2.71134018       2.71453302       0.00023996       0.00000000
Si      -2.71339272      -0.00034209       2.71449642       0.00000000
Si       0.00200367       2.71375110       2.71477066       0.00000000
Si       0.00185706      -2.71515204       2.71470210       0.00000000
Si      -2.71539639      -2.71505430       0.00065132       0.00000000
