10
Lattice="16.28999089631971 0.0 0.0 0.0 16.28999089631971 0.0 0.0 0.0 34.279985188174585" Properties=species:S:1:pos:R:3:initial_magmoms:R:1 pbc="T T T"
Si       1.28156688      -1.42850268      -1.34734129       0.00000000
Si      -1.44001971       1.29714012      -1.35296321       0.00000000
Si       1.39857795       1.19926980       1.59326604       0.00000000
Si      -0.89482599      -2.31070392       1.60375572       0.00000000
Si       0.48933531      -0.89588484       2.85463308       0.00000000
Si       2.61936684       2.69794980       0.10537673       0.00000000
Si       2.48474628      -2.84328918       0.20653703       0.00000000
Si       2.64425796      -0.07162713      -2.72107818       0.00000000
Si      -0.07723089       2.64562632      -2.72063254       0.00000000
Si      -2.39163264       0.14620275       2.99027906       0.00000000
