10
Lattice="16.28999089631971 0.0 0.0 0.0 16.28999089631971 0.0 0.0 0.0 34.279985188174585" Properties=species:S:1:pos:R:3:initial_magmoms:R:1 pbc="T T T"
Si       1.43783685       0.28202877       1.81210959       0.00000000
Si      -2.10632958       0.02984328       1.00402705       0.00000000
Si       0.09754452      -2.30306391      -0.49575742       0.00000000
Si      -1.22210838       0.69159195      -2.46336111       0.00000000
Si      -3.10865328      -0.07099182      -1.10806686       0.00000000
Si      -0.16900875       3.42318060      -0.19940679       0.00000000
Si      -0.38389014      -3.00009672       1.71550854       0.00000000
Si       1.78833249      -1.96087617      -2.39236722       0.00000000
Si       1.11721707      -1.71962127       2.94441241       0.00000000
Si      -2.41943967       2.00968101       2.15175587       0.00000000
