10
Lattice="16.28999089631971 0.0 0.0 0.0 16.28999089631971 0.0 0.0 0.0 34.279985188174585" Properties=species:S:1:pos:R:3:initial_magmoms:R:1 pbc="T T T"
Si       0.46709946      -0.47625444      -2.21345988       0.00000000
Si       0.05815530      -2.13793218       0.96676468       0.00000000
Si       1.78469982       1.25718075       0.93320456       0.00000000
Si      -1.97397333       1.34908893       0.11524937       0.00000000
Si      -2.08595079       1.91414016       2.38640250       0.00000000
Si      -3.65102883      -0.09207108      -0.73523753       0.00000000
Si       0.78771924       1.52539560      -3.34576270       0.00000000
Si      -0.23219766      -1.86768108       3.29149746       0.00000000
Si       0.59204376       3.30846642      -1.90243740       0.00000000
Si      -1.61604945       3.31270182      -1.15688159       0.00000000
