10
Lattice="16.28999089631971 0.0 0.0 0.0 16.28999089631971 0.0 0.0 0.0 34.279985188174585" Properties=species:S:1:pos:R:3:initial_magmoms:R:1 pbc="T T T"
Si      -0.11197746       0.56505123       2.27115313       0.00000000
Si       0.35792388       1.96361289      -1.27213096       0.00000000
Si      -1.67705550      -1.44116001      -0.85048691       0.00000000
Si       1.97397333      -1.34908893      -0.11524937       0.00000000
Si      -1.66001616      -3.22988346       0.69451289       0.00000000
Si       2.56601709       1.95937749      -2.01768678       0.00000000
Si      -1.09558395       1.90395891      -3.12136580       0.00000000
Si       0.22379202      -1.44840906       3.52778953       0.00000000
Si       2.44107279      -1.82534337      -2.32870926       0.00000000
Si       3.75867315      -0.09190818       0.81795518       0.00000000
