10
Lattice="16.28999089631971 0.0 0.0 0.0 16.28999089631971 0.0 0.0 0.0 34.279985188174585" Properties=species:S:1:pos:R:3:initial_magmoms:R:1 pbc="T T T"
Si      -0.60264855       1.04847327       2.02481702       0.00000000
Si       2.02277817      -1.19858562       0.27386295       0.00000000
Si       0.66210705       1.82159667      -1.36629813       0.00000000
Si      -1.78469982      -1.25718075      -0.93320456       0.00000000
Si       1.07258247       2.65971717       2.19464016       0.00000000
Si      -1.19265606       2.05128567      -2.83564196       0.00000000
Si       1.83733281      -3.02876712      -1.38422658       0.00000000
Si      -1.72654452      -3.39511293       0.03356012       0.00000000
Si      -1.31760036      -1.73343519      -3.14666444       0.00000000
Si      -3.75867315       0.09190818      -0.81795518       0.00000000
