10
Lattice="16.28999089631971 0.0 0.0 0.0 16.28999089631971 0.0 0.0 0.0 34.279985188174585" Properties=species:S:1:pos:R:3:initial_magmoms:R:1 pbc="T T T"
Si      -0.39825792      -0.66350799      -2.22655484       0.00000000
Si      -0.24132006      -1.89491796       1.38155274       0.00000000
Si      -1.80273285       1.40361156       0.75405726       0.00000000
Si       2.13374565       0.86327226      -0.71233849       0.00000000
Si      -2.35682091      -2.46487248       0.51543415       0.00000000
Si      -3.44150685      -0.28919637       0.36096845       0.00000000
Si       2.01689748       2.86378200       0.49442050       0.00000000
Si       1.11972573      -2.43186894      -2.57809629       0.00000000
Si       1.61815086      -3.30631614       0.95822896       0.00000000
Si      -0.73402740       1.34995230      -3.48319124       0.00000000
