10
Lattice="16.28999089631971 0.0 0.0 0.0 16.28999089631971 0.0 0.0 0.0 34.279985188174585" Properties=species:S:1:pos:R:3:initial_magmoms:R:1 pbc="T T T"
Si      -1.98799902      -1.11610935      -0.58097751       0.00000000
Si       1.51798365      -1.76836095      -0.35154144       0.00000000
Si       0.39825792       0.66350799       2.22655484       0.00000000
Si      -0.33576948       2.01346029      -1.25663640       0.00000000
Si       2.53200357       1.52678025       1.51421635       0.00000000
Si      -3.35222136       0.59562756       0.21839791       0.00000000
Si       0.11192859      -3.59072325       0.24215395       0.00000000
Si      -2.42945802       2.64648969      -0.44149218       0.00000000
Si      -2.08733544      -3.03586956       0.74881241       0.00000000
Si       0.15693786      -1.23140997       3.60810758       0.00000000
