10
Lattice="16.28999089631971 0.0 0.0 0.0 16.28999089631971 0.0 0.0 0.0 34.279985188174585" Properties=species:S:1:pos:R:3:initial_magmoms:R:1 pbc="T T T"
Si       1.35539316       1.35739683       1.35690541       0.00000000
Si      -1.35954711      -1.35738054       1.35697397       0.00000000
Si       1.35586557      -1.36034532      -1.35800237       0.00000000
Si      -1.36039419       1.35739683      -1.36112185       0.00000000
Si       2.71134018      -2.71453302      -0.00023996       0.00000000
Si       2.72513781       0.00413766      -2.70219333       0.00000000
Si       2.71334385      -0.00078192       2.71453070       0.00000000
Si       2.71334385       2.71539639       0.00082272       0.00000000
Si      -0.00206883       2.71497285       2.71405078       0.00000000
Si      -0.00205254      -2.71487511       2.71425646       0.00000000
