10
Lattice="16.28999089631971 0.0 0.0 0.0 16.28999089631971 0.0 0.0 0.0 34.279985188174585" Properties=species:S:1:pos:R:3:initial_magmoms:R:1 pbc="T T T"
Si      -1.38277665       1.29160152      -1.39588178       0.00000000
Si      -1.37021706      -1.24308990       1.45271802       0.00000000
Si       1.34294760      -1.42151427      -1.38953998       0.00000000
Si       0.97042788       1.76008563       1.31882033       0.00000000
Si      -0.87195483       3.42575442       1.37380545       0.00000000
Si      -2.76835518       2.61799848       0.05532793       0.00000000
Si       0.17728407      -2.54122371       2.84561744       0.00000000
Si      -0.01133784       2.64893319      -2.76063731       0.00000000
Si       2.68330509      -2.72831436       0.06430929       0.00000000
Si       2.72759760       2.68496667      -0.02769824       0.00000000
