10
Lattice="16.28999089631971 0.0 0.0 0.0 16.28999089631971 0.0 0.0 0.0 34.279985188174585" Properties=species:S:1:pos:R:3:initial_magmoms:R:1 pbc="T T T"
Si       0.10775835      -1.69481160       1.56892724       0.00000000
Si      -1.30341177      -0.33673059      -1.88591444       0.00000000
Si       1.99099638       0.24571836      -1.18317435       0.00000000
Si      -1.01294478       1.61479512       1.38535782       0.00000000
Si       0.30343383      -3.47788242       0.12560194       0.00000000
Si      -2.10033486      -1.69057620       2.31448305       0.00000000
Si       2.15515071       2.60117091      -1.13857606       0.00000000
Si      -0.49226751       1.03434984      -3.53886197       0.00000000
Si       3.71493450      -0.33658398       0.26762399       0.00000000
Si      -3.49821234      -0.18637389      -1.31378117       0.00000000
