10
Lattice="16.28999089631971 0.0 0.0 0.0 16.28999089631971 0.0 0.0 0.0 34.279985188174585" Properties=species:S:1:pos:R:3:initial_magmoms:R:1 pbc="T T T"
Si      -2.19480057       0.15035670       0.57213327       0.00000000
Si       0.81114426       1.37108043      -1.65294753       0.00000000
Si       1.30341177       0.33673059       1.88591444       0.00000000
Si       3.29440815       0.58244895       0.70274009       0.00000000
Si       0.16900875      -3.42318060       0.19940679       0.00000000
Si       3.03554376       0.41443389      -1.66552829       0.00000000
Si      -2.25043092      -1.41349959       2.35116266       0.00000000
Si      -1.05309963      -2.73158865      -2.26395433       0.00000000
Si      -3.38010984      -0.40850433      -1.54791360       0.00000000
Si       0.29046699       1.95152571       3.27127225       0.00000000
