10
Lattice="16.28999089631971 0.0 0.0 0.0 16.28999089631971 0.0 0.0 0.0 34.279985188174585" Properties=species:S:1:pos:R:3:initial_magmoms:R:1 pbc="T T T"
Si       1.35702868       1.35707103      -1.35697397       0.00000000
Si      -1.35695767      -1.35799956      -1.35680257       0.00000000
Si      -1.35735593       1.35738054       1.35824233       0.00000000
Si       1.35761512      -1.35754344       1.35807093       0.00000000
Si      -2.71463143       2.71469592      -0.00013712       0.00000000
Si      -2.71503868       0.00030951       2.71432502       0.00000000
Si       2.71494679       2.71497285       0.00013712       0.00000000
Si      -2.71490836      -2.71507059       0.00010284       0.00000000
Si       2.71468615      -0.00009774       2.71552482       0.00000000
Si       2.71504453      -2.71546155       0.00034280       0.00000000
