10
Lattice="16.28999089631971 0.0 0.0 0.0 16.28999089631971 0.0 0.0 0.0 34.279985188174585" Properties=species:S:1:pos:R:3:initial_magmoms:R:1 pbc="T T T"
Si       1.86355971      -1.42386003       0.03578832       0.00000000
Si      -1.40444235      -1.81537389      -0.53583075       0.00000000
Si      -0.06097347       2.00816604      -1.29434440       0.00000000
Si      -0.57837645       0.73445094       2.20458136       0.00000000
Si       1.46333070      -2.30205393       2.23502200       0.00000000
Si       3.53879073       0.18738387       0.20561147       0.00000000
Si      -0.28082331       3.06330192       1.93599753       0.00000000
Si      -2.87621127       0.04973337       2.25394457       0.00000000
Si      -3.49813089      -1.18234449       0.27931348       0.00000000
Si       1.34648253      -0.30154419       3.44178100       0.00000000
