10
Lattice="16.28999089631971 0.0 0.0 0.0 16.28999089631971 0.0 0.0 0.0 34.279985188174585" Properties=species:S:1:pos:R:3:initial_magmoms:R:1 pbc="T T T"
Si       1.56908538      -1.67648535      -0.17715906       0.00000000
Si      -0.30696876       1.16532144      -2.03290710       0.00000000
Si      -2.15705664      -0.85880880       0.47597786       0.00000000
Si       0.87573411       1.14979707       1.88989092       0.00000000
Si      -3.07376010       1.00336626       1.62398093       0.00000000
Si      -1.96387353       2.94591618       0.75645686       0.00000000
Si       1.44270756      -2.67959097       1.97593373       0.00000000
Si       3.51839565      -0.42402870      -0.86176503       0.00000000
Si      -1.45933965       3.10932117      -1.53029367       0.00000000
Si      -3.25619181      -1.06754886      -1.55792336       0.00000000
