10
Lattice="16.28999089631971 0.0 0.0 0.0 16.28999089631971 0.0 0.0 0.0 34.279985188174585" Properties=species:S:1:pos:R:3:initial_magmoms:R:1 pbc="T T T"
Si      -1.31903388      -1.22225499       1.48461355       0.00000000
Si       1.41436296       1.42465824       1.34219384       0.00000000
Si      -1.08453933       1.30904811      -1.74598346       0.00000000
Si       0.94770333      -1.95812316      -1.12212166       0.00000000
Si       0.80775594       1.13505462      -3.25426937       0.00000000
Si      -2.40259581      -2.80223838       0.05183137       0.00000000
Si       2.69967654      -2.73774627       0.24437122       0.00000000
Si      -0.02428839      -2.59211367       2.92050352       0.00000000
Si       2.68666083       0.11163537       2.90298987       0.00000000
Si       3.31832187       2.17417743      -0.09721809       0.00000000
