10
Lattice="16.28999089631971 0.0 0.0 0.0 16.28999089631971 0.0 0.0 0.0 34.279985188174585" Properties=species:S:1:pos:R:3:initial_magmoms:R:1 pbc="T T T"
Si      -1.37862270      -1.60124054       1.06127465       0.00000000
Si       0.35078886       1.27228158       1.96540977       0.00000000
Si      -0.88571988       1.43500239      -1.68352529       0.00000000
Si       2.04089265      -0.97627599      -0.84277391       0.00000000
Si       0.49464585      -0.31572138       3.68880271       0.00000000
Si      -1.74048876       0.01632258      -3.37301531       0.00000000
Si       0.77976972       3.00390858      -2.36933106       0.00000000
Si       2.29283379      -0.26068073      -3.15516588       0.00000000
Si      -1.63325169      -1.17247275       3.36879887       0.00000000
Si      -3.39156171      -1.97209088      -0.00994120       0.00000000
