10
Lattice="16.28999089631971 0.0 0.0 0.0 16.28999089631971 0.0 0.0 0.0 34.279985188174585" Properties=species:S:1:pos:R:3:initial_magmoms:R:1 pbc="T T T"
Si      -1.98343782      -1.05352317       0.56918519       0.00000000
Si       1.11879720       0.39192111      -2.08741230       0.00000000
Si      -0.96234804       2.19867759      -0.33830936       0.00000000
Si       1.52637530      -0.50199264       1.81680595       0.00000000
Si       1.21361968      -2.02276188      -1.59617984       0.00000000
Si       2.61121274       1.82327454      -0.85004127       0.00000000
Si       2.46537651       1.64542032       1.70327058       0.00000000
Si       1.06823304       3.25365057       0.13043542       0.00000000
Si      -2.24013564       0.17218530       2.64943298       0.00000000
Si      -1.88335206       2.36509623       1.76326058       0.00000000
