10
Lattice="16.28999089631971 0.0 0.0 0.0 16.28999089631971 0.0 0.0 0.0 34.279985188174585" Properties=species:S:1:pos:R:3:initial_magmoms:R:1 pbc="T T T"
Si      -1.36842516      -1.34123715      -1.38244402       0.00000000
Si       1.34231229       1.37582082      -1.38323246       0.00000000
Si      -1.34513046       1.41170769       1.35028937       0.00000000
Si       1.49273415      -1.38890169       1.51702731       0.00000000
Si       0.27328104       2.64683178       2.69067182       0.00000000
Si      -2.72978046      -2.69477325      -0.01155236       0.00000000
Si       2.71379997       2.72629440      -0.01467184       0.00000000
Si      -0.01378134      -2.69845479      -2.74233179       0.00000000
Si       2.72769534      -2.71886616       0.00119980       0.00000000
Si       2.70322776       0.01718595      -2.74360015       0.00000000
