10
Lattice="16.28999089631971 0.0 0.0 0.0 16.28999089631971 0.0 0.0 0.0 34.279985188174585" Properties=species:S:1:pos:R:3:initial_magmoms:R:1 pbc="T T T"
Si      -0.54871236       1.71981675      -1.40242926       0.00000000
Si      -1.04632299       0.67282587       1.97188869       0.00000000
Si       2.35847339       0.33946731       0.25792275       0.00000000
Si      -1.34882829      -1.77345972      -1.08064286       0.00000000
Si       2.14942382      -1.81600920       1.31820329       0.00000000
Si       0.84718004       0.92387106      -3.11001911       0.00000000
Si       2.86346339       0.33762654      -2.03822050       0.00000000
Si      -1.94699709      -1.32631551       2.81925612       0.00000000
Si      -3.07625247      -1.95444162       0.57905783       0.00000000
Si      -1.55444067       2.97911520       1.66316297       0.00000000
