10
Lattice="16.28999089631971 0.0 0.0 0.0 16.28999089631971 0.0 0.0 0.0 34.279985188174585" Properties=species:S:1:pos:R:3:initial_magmoms:R:1 pbc="T T T"
Si       2.28261996      -0.28168668       0.20177211       0.00000000
Si      -1.67523102      -1.61124390      -0.16982314       0.00000000
Si       0.12637782       1.00310562      -2.15309279       0.00000000
Si      -0.71584776       0.92471814       2.09563951       0.00000000
Si       2.57313582       1.74259017       1.40596010       0.00000000
Si      -3.53879073      -0.18738387      -0.20561147       0.00000000
Si      -1.07258247      -2.65971717      -2.19464016       0.00000000
Si      -1.44270756       2.67959097      -1.97593373       0.00000000
Si       1.27689165       0.97761177       3.26736433       0.00000000
Si      -0.41047542      -0.83812050      -3.56093829       0.00000000
