10
Lattice="16.28999089631971 0.0 0.0 0.0 16.28999089631971 0.0 0.0 0.0 34.279985188174585" Properties=species:S:1:pos:R:3:initial_magmoms:R:1 pbc="T T T"
Si       1.35218651       1.35252612      -1.35944899       0.00000000
Si       1.35375647      -1.35601218       1.35916789       0.00000000
Si      -1.35933534       1.35887922       1.35916789       0.00000000
Si      -1.34332227      -1.37137365      -1.38508700       0.00000000
Si      -0.09037692       2.66773185      -2.69292402       0.00000000
Si       2.71230033       0.00122175       2.71693030       0.00000000
Si      -0.00239463      -2.71383255       2.71634754       0.00000000
Si       2.71291121       2.71754667       0.00212536       0.00000000
Si       2.71488718      -2.71642266      -0.00322232       0.00000000
Si      -0.00275301       2.71621089       2.71682746       0.00000000
