10
Lattice="16.28999089631971 0.0 0.0 0.0 16.28999089631971 0.0 0.0 0.0 34.279985188174585" Properties=species:S:1:pos:R:3:initial_magmoms:R:1 pbc="T T T"
Si       1.35789734       1.35691173      -1.35666545       0.00000000
Si      -1.35658233      -1.35733167      -1.35765957       0.00000000
Si       1.35778393      -1.35742941       1.35735105       0.00000000
Si      -1.35744570       1.35763046       1.35769385       0.00000000
Si      -2.71590138      -0.00001629       2.71261102       0.00000000
Si       0.00030951      -2.71472850       2.71411934       0.00000000
Si       2.71498167       0.00114030       2.71435930       0.00000000
Si      -2.71484253       2.71498492      -0.00030852       0.00000000
Si      -2.71511946      -2.71476108       0.00041136       0.00000000
Si      -0.00105885       2.71427305       2.71576478       0.00000000
