10
Lattice="16.28999089631971 0.0 0.0 0.0 16.28999089631971 0.0 0.0 0.0 34.279985188174585" Properties=species:S:1:pos:R:3:initial_magmoms:R:1 pbc="T T T"
Si      -1.35529542       1.35607734      -1.36187601       0.00000000
Si       1.36091547      -1.35863487      -1.36036769       0.00000000
Si       1.37148768       1.35047358       1.36856061       0.00000000
Si      -1.34231229      -1.37582082       1.38323246       0.00000000
Si      -2.68744275       0.03588687       2.73352183       0.00000000
Si      -2.71265967       2.71254630      -0.00020568       0.00000000
Si      -2.71073745      -2.71705797       0.00078844       0.00000000
Si       2.71512803      -2.71329498       0.00013712       0.00000000
Si      -2.71187775      -0.00140094      -2.71706742       0.00000000
Si       0.00316026       2.71372409      -2.71679318       0.00000000
