10
Lattice="16.28999089631971 0.0 0.0 0.0 16.28999089631971 0.0 0.0 0.0 34.279985188174585" Properties=species:S:1:pos:R:3:initial_magmoms:R:1 pbc="T T T"
Si       1.34949130       1.35915615      -1.36972613       0.00000000
Si      -1.12016556       1.46633183       1.46903531       0.00000000
Si      -1.37148768      -1.35047358      -1.36856061       0.00000000
Si       1.35790645      -1.31162193       1.45402066       0.00000000
Si      -2.44051893      -0.07946262       2.70534366       0.00000000
Si       2.42906447       0.39684069       2.84589168       0.00000000
Si       2.70221356      -2.70940167       0.01018116       0.00000000
Si       2.70905862       2.71912584       0.01546028       0.00000000
Si       2.70409995       0.00676035      -2.72868835       0.00000000
Si      -0.01057221      -2.70910845      -2.72892831       0.00000000
