10
Lattice="16.28999089631971 0.0 0.0 0.0 16.28999089631971 0.0 0.0 0.0 34.279985188174585" Properties=species:S:1:pos:R:3:initial_magmoms:R:1 pbc="T T T"
Si      -1.47831750       1.22934114       1.28423180       0.00000000
Si       1.32035337       1.54579445      -1.23630836       0.00000000
Si      -1.61841150      -1.23512409      -1.34038245       0.00000000
Si       1.25027379      -1.34506530       1.60567540       0.00000000
Si      -1.52225163      -0.29998035       3.06799183       0.00000000
Si       2.44051893       0.07946262      -2.70534366       0.00000000
Si       3.03670035       2.15900397       0.52177595       0.00000000
Si       2.64982914      -2.65720851       0.27612544       0.00000000
Si      -0.27328104      -2.64683178      -2.69067182       0.00000000
Si      -0.28155636       2.80811811      -2.67137218       0.00000000
