10
Lattice="16.28999089631971 0.0 0.0 0.0 16.28999089631971 0.0 0.0 0.0 34.279985188174585" Properties=species:S:1:pos:R:3:initial_magmoms:R:1 pbc="T T T"
Si       2.34506768       0.28603611      -0.08141501       0.00000000
Si      -0.12922694      -1.14202674       2.11370507       0.00000000
Si      -1.04958003       2.20887513      -0.14119934       0.00000000
Si      -1.23349413      -1.21151988      -1.73731062       0.00000000
Si       2.32670884       1.40151015       2.05796578       0.00000000
Si      -3.34290252      -0.36991332      -1.00299865       0.00000000
Si      -3.15745716       1.46026818       0.65509088       0.00000000
Si      -0.67534756       3.06240597      -2.32192181       0.00000000
Si      -0.19473229      -3.50033330       1.72191890       0.00000000
Si       1.41740105      -0.05611905       3.65263730       0.00000000
