10
Lattice="16.28999089631971 0.0 0.0 0.0 16.28999089631971 0.0 0.0 0.0 34.279985188174585" Properties=species:S:1:pos:R:3:initial_magmoms:R:1 pbc="T T T"
Si       1.91010580       1.23317485      -0.67082541       0.00000000
Si      -0.36373941      -1.72626759      -1.60834924       0.00000000
Si      -1.57579686       1.76899856       0.35304976       0.00000000
Si       0.60198066      -1.05534765       2.13962075       0.00000000
Si       0.97647147       1.09222888       3.10432863       0.00000000
Si      -0.74658699       2.72309246       2.43237199       0.00000000
Si      -3.70369440       0.91224719       0.03304592       0.00000000
Si      -2.62239678      -1.68349005      -2.21226008       0.00000000
Si       0.51771249      -3.77028792      -0.72025717       0.00000000
Si       2.39878299       2.96081243       0.90612335       0.00000000
