10
Lattice="16.28999089631971 0.0 0.0 0.0 16.28999089631971 0.0 0.0 0.0 34.279985188174585" Properties=species:S:1:pos:R:3:initial_magmoms:R:1 pbc="T T T"
Si       1.89594423       0.49647033       1.25149440       0.00000000
Si      -0.90930780      -1.45762920       1.59467152       0.00000000
Si      -0.73956600       2.25318393       0.08388317       0.00000000
Si       0.01835883      -1.11547404      -2.13938079       0.00000000
Si      -2.32670884      -1.40151015      -2.05796578       0.00000000
Si      -1.24455600       2.25502470       2.38002642       0.00000000
Si       3.26016657      -1.21526658       0.45211898       0.00000000
Si      -2.45593579      -2.54353689       0.05573929       0.00000000
Si       1.14508926       3.35513727      -0.86796971       0.00000000
Si      -1.45360557       0.09954819       3.44030696       0.00000000
