10
Lattice="16.28999089631971 0.0 0.0 0.0 16.28999089631971 0.0 0.0 0.0 34.279985188174585" Properties=species:S:1:pos:R:3:initial_magmoms:R:1 pbc="T T T"
Si       1.18608142       1.49003001       1.39915007       0.00000000
Si      -0.43060239       0.61708149      -2.25737257       0.00000000
Si      -1.64757942      -1.21264389       1.45562295       0.00000000
Si      -0.84459645      -1.34123715      -3.47287296       0.00000000
Si      -2.55452517       1.70924454      -2.29891993       0.00000000
Si       2.62827584       2.80702764      -0.16975458       0.00000000
Si       2.49165161       0.10477728       3.01176375       0.00000000
Si      -0.22362165      -2.59950933       3.02427252       0.00000000
Si      -3.02050062       2.75522544      -0.05210561       0.00000000
Si      -3.23137467      -2.50579296       0.00928988       0.00000000
