10
Lattice="16.28999089631971 0.0 0.0 0.0 16.28999089631971 0.0 0.0 0.0 34.279985188174585" Properties=species:S:1:pos:R:3:initial_magmoms:R:1 pbc="T T T"
Si       1.72569744       0.11953602       1.64283493       0.00000000
Si       0.20904957       2.15547651      -1.06028053       0.00000000
Si       0.54429777      -1.55717739      -1.84563543       0.00000000
Si      -1.97249813      -0.60246936       1.54260020       0.00000000
Si      -2.14942382       1.81600920      -1.31820329       0.00000000
Si      -2.38649219      -2.56078800       0.32709980       0.00000000
Si       1.60278939      -3.24910566      -0.53178571       0.00000000
Si       3.65852223       0.17560620       0.18031282       0.00000000
Si       1.45360557      -0.09954819      -3.44030696       0.00000000
Si       2.83631706      -2.16753111       1.74509218       0.00000000
