10
Lattice="16.28999089631971 0.0 0.0 0.0 16.28999089631971 0.0 0.0 0.0 34.279985188174585" Properties=species:S:1:pos:R:3:initial_magmoms:R:1 pbc="T T T"
Si      -1.36943025      -1.34376210       1.38329416       0.00000000
Si       1.34211681       1.37257911       1.38559092       0.00000000
Si      -1.38876648       1.37059173      -1.36361744       0.00000000
Si       1.46272797      -1.43702235      -1.55973334       0.00000000
Si       0.00376299       2.60105688      -2.78784333       0.00000000
Si       2.70539433      -2.71655298       0.00057933       0.00000000
Si      -2.73089435      -2.69145009      -0.02574428       0.00000000
Si       2.71059084       2.72877048       0.01443188       0.00000000
Si      -0.01505196      -2.69879688       2.74602717       0.00000000
Si       2.69992089       0.01602936       2.74571865       0.00000000
