10
Lattice="16.28999089631971 0.0 0.0 0.0 16.28999089631971 0.0 0.0 0.0 34.279985188174585" Properties=species:S:1:pos:R:3:initial_magmoms:R:1 pbc="T T T"
Si       1.39252947       1.23046515      -1.42422590       0.00000000
Si      -1.34336444       1.35459495       1.39068493       0.00000000
Si       1.38876648      -1.37059173       1.36361744       0.00000000
Si      -1.23452217      -1.02791529      -1.80123738       0.00000000
Si       2.56682670      -0.49840884      -2.53582360       0.00000000
Si       0.77277642      -2.00223648      -2.98890241       0.00000000
Si      -2.66424157      -2.62676250      -0.31429622       0.00000000
Si      -2.69555095       0.00206883       2.75013392       0.00000000
Si      -2.78592787       2.66980068       0.05720990       0.00000000
Si       0.01933623      -2.71435383       2.74691160       0.00000000
