10
Lattice="16.28999089631971 0.0 0.0 0.0 16.28999089631971 0.0 0.0 0.0 34.279985188174585" Properties=species:S:1:pos:R:3:initial_magmoms:R:1 pbc="T T T"
Si       1.35764118       1.35702216       1.35669973       0.00000000
Si       1.35731538      -1.35725022      -1.35786525       0.00000000
Si      -1.35796535      -1.35692442       1.35755673       0.00000000
Si      -1.35756787       1.35752715      -1.35755673       0.00000000
Si       0.00164529       2.71148679       2.71710170       0.00000000
Si       2.71484253      -2.71471221      -0.00068560       0.00000000
Si       2.71437012      -0.00032580      -2.71528486       0.00000000
Si      -2.71498734      -2.71484253       0.00023996       0.00000000
Si      -2.71483729       2.71508688      -0.00030852       0.00000000
Si       2.71526607       0.00366525       2.71470210       0.00000000
