10
Lattice="16.28999089631971 0.0 0.0 0.0 16.28999089631971 0.0 0.0 0.0 34.279985188174585" Properties=species:S:1:pos:R:3:initial_magmoms:R:1 pbc="T T T"
Si      -1.35421256       1.35466011      -1.36050481       0.00000000
Si       1.36013379      -1.36005210      -1.35940785       0.00000000
Si       1.35857321       1.35436689       1.37860465       0.00000000
Si      -1.32974498      -1.38139200       1.38429514       0.00000000
Si       2.64088455      -0.11323179       2.76889879       0.00000000
Si       2.71974444       2.70835911       0.00013712       0.00000000
Si      -2.71512803       2.71329498      -0.00013712       0.00000000
Si      -2.71200035      -0.00285075      -2.71672462       0.00000000
Si       0.00326186       2.71195920      -2.71727310       0.00000000
Si      -2.70937766      -2.72161917       0.00236532       0.00000000
