10
Lattice="16.28999089631971 0.0 0.0 0.0 16.28999089631971 0.0 0.0 0.0 34.279985188174585" Properties=species:S:1:pos:R:3:initial_magmoms:R:1 pbc="T T T"
Si      -0.90710213       1.34363178       1.65116497       0.00000000
Si      -1.46494830      -1.76816547      -0.43926398       0.00000000
Si       0.19723932       0.83834856      -2.17746588       0.00000000
Si       2.18491254      -0.67914639       0.83938019       0.00000000
Si      -1.21874124      -0.58963284       2.95270817       0.00000000
Si       2.05959357      -0.51885279      -2.64161713       0.00000000
Si       3.34624293       0.39589587      -0.90821444       0.00000000
Si       0.85796172       2.87316504       1.85372551       0.00000000
Si      -1.83918077      -2.62169631       1.74145850       0.00000000
Si      -0.35095990      -3.06299241      -2.18384196       0.00000000
