10
Lattice="16.28999089631971 0.0 0.0 0.0 16.28999089631971 0.0 0.0 0.0 34.279985188174585" Properties=species:S:1:pos:R:3:initial_magmoms:R:1 pbc="T T T"
Si       0.40174398      -2.26426113      -0.46055186       0.00000000
Si       1.16133039       1.07504226      -1.74759462       0.00000000
Si       0.49728483       0.60522237       2.23327372       0.00000000
Si      -2.18491254       0.67914639      -0.83938019       0.00000000
Si      -0.20502594      -2.13006411      -2.73694983       0.00000000
Si      -0.12531897       0.16029360      -3.48099732       0.00000000
Si      -1.38737043      -0.49673097       3.18512660       0.00000000
Si       0.73783926       2.90418120       1.93863709       0.00000000
Si      -3.09201467       2.02277817       0.81178478       0.00000000
Si      -1.98767322       1.51749495      -3.01684606       0.00000000
