10
Lattice="16.28999089631971 0.0 0.0 0.0 16.28999089631971 0.0 0.0 0.0 34.279985188174585" Properties=species:S:1:pos:R:3:initial_magmoms:R:1 pbc="T T T"
Si      -1.35218651      -1.35252612       1.35944899       0.00000000
Si       1.36072470       1.36502055       1.36157435       0.00000000
Si       1.34336444      -1.35459495      -1.39068493       0.00000000
Si      -1.44256343       1.31520573      -1.33347503       0.00000000
Si       0.20512024       2.51478504      -2.44691459       0.00000000
Si      -2.69550878      -2.72389977      -0.02563802       0.00000000
Si       0.00156996      -2.70853830       2.71861688       0.00000000
Si       2.72312256       2.70539169       0.02010179       0.00000000
Si      -2.71152185       0.00635310       2.71861688       0.00000000
Si       2.71639479       0.00711873       2.71964528       0.00000000
