10
Lattice="16.28999089631971 0.0 0.0 0.0 16.28999089631971 0.0 0.0 0.0 34.279985188174585" Properties=species:S:1:pos:R:3:initial_magmoms:R:1 pbc="T T T"
Si      -0.78721425       1.78010604       1.28364904       0.00000000
Si      -1.76506385      -1.52953326      -0.20256055       0.00000000
Si       0.50404518       0.96141951      -2.08281878       0.00000000
Si       2.06479008      -0.64813023       0.92429176       0.00000000
Si      -0.85796172      -2.87316504      -1.85372551       0.00000000
Si       2.54498670      -0.12232161      -2.58299833       0.00000000
Si       0.09690921       1.30650687       3.39372043       0.00000000
Si       1.82423565      -2.94708906       1.21892839       0.00000000
Si      -3.67952723      -0.12960324      -0.23289835       0.00000000
Si       0.10705788       3.29818743      -1.74361814       0.00000000
