10
Lattice="16.28999089631971 0.0 0.0 0.0 16.28999089631971 0.0 0.0 0.0 34.279985188174585" Properties=species:S:1:pos:R:3:initial_magmoms:R:1 pbc="T T T"
Si      -0.95358402      -0.67196250      -2.01641842       0.00000000
Si      -0.50404518      -0.96141951       2.08281878       0.00000000
Si       2.04094152      -1.08374112      -0.50017954       0.00000000
Si      -0.39698730       2.33676792       0.33920064       0.00000000
Si       1.75317867       2.75368508      -0.48033142       0.00000000
Si      -2.99434358       0.52098678      -1.80405379       0.00000000
Si       3.19494141      -0.76251861       1.46869251       0.00000000
Si      -2.39261493       2.65987634      -0.87462003       0.00000000
Si      -1.29125943       0.81868653       3.36646783       0.00000000
Si       3.13939251       1.62145773       1.20576487       0.00000000
