10
Lattice="10.86 0.0 0.0 0.0 10.86 0.0 0.0 0.0 10.86" Properties=species:S:1:pos:R:3:initial_magmoms:R:1 pbc="T T T"
Si      -1.45038558       1.25106114      -1.22477994       0.00000000
Si       1.26461442      -1.46393886      -1.22477994       0.00000000
Si       0.88931454       0.30014868       2.13751950       0.00000000
Si      -1.45038558      -1.46393886       1.49022006       0.00000000
Si      -0.09288558       2.60856114      -2.58227994       0.00000000
Si       2.62211442      -0.10643886      -2.58227994       0.00000000
Si      -0.15558036       2.58371346       2.76632436       0.00000000
Si      -2.80788558      -0.10643886      -2.58227994       0.00000000
Si      -0.09288558      -2.82143886      -2.58227994       0.00000000
Si      -2.80788558       2.60856114       0.13272006       0.00000000
