10
Lattice="10.86 0.0 0.0 0.0 10.86 0.0 0.0 0.0 10.86" Properties=species:S:1:pos:R:3:initial_magmoms:R:1 pbc="T T T"
Si       1.35750000       1.35750000       1.35750000       0.00000000
Si      -1.35750000       1.35750000      -1.35750000       0.00000000
Si      -1.35750000      -1.35750000       1.35750000       0.00000000
Si       1.35750000      -1.35750000      -1.35750000       0.00000000
Si      -0.13091730      -2.55643314      -2.64156468       0.00000000
Si      -2.62211442       0.10643886       2.58227994       0.00000000
Si       0.20324490      -2.73496068       2.62490544       0.00000000
Si       0.40669614       2.87830182       2.46355842       0.00000000
Si       2.50658574      -0.18570600       2.89620996       0.00000000
Si      -2.71500000       2.71500000       0.00000000       0.00000000
