10
Lattice="10.86 0.0 0.0 0.0 10.86 0.0 0.0 0.0 10.86" Properties=species:S:1:pos:R:3:initial_magmoms:R:1 pbc="T T T"
Si       1.33774566       1.32539784      -1.38331422       0.00000000
Si       1.33774566      -1.38960216       1.33168578       0.00000000
Si      -1.37725434      -1.38960216      -1.38331422       0.00000000
Si      -0.01768008       2.59153266       2.70412914       0.00000000
Si       2.69524566       2.68289784      -0.02581422       0.00000000
Si       2.69524566      -0.03210216       2.68918578       0.00000000
Si      -2.75617026       2.64746166       0.00442002       0.00000000
Si      -0.01975434       2.68289784      -2.74081422       0.00000000
Si       2.69524566      -0.03210216      -2.74081422       0.00000000
Si      -0.01975434      -2.74710216       2.68918578       0.00000000
