10
Lattice="10.86 0.0 0.0 0.0 10.86 0.0 0.0 0.0 10.86" Properties=species:S:1:pos:R:3:initial_magmoms:R:1 pbc="T T T"
Si       1.14165750      -1.14165750       1.31555868       0.00000000
Si       1.14165750       1.57334250      -1.39944132       0.00000000
Si      -1.57334250      -1.14165750      -1.39944132       0.00000000
Si      -1.40973660       1.40973660       1.41949974       0.00000000
Si       2.49915750      -2.49915750      -0.04194132       0.00000000
Si       2.49915750       0.21584250       2.67305868       0.00000000
Si      -0.21584250      -2.49915750       2.67305868       0.00000000
Si      -0.21584250      -2.49915750      -2.75694132       0.00000000
Si       2.49915750       0.21584250      -2.75694132       0.00000000
Si       2.49915750       2.93084250      -0.04194132       0.00000000
