10
Lattice="16.28999089631971 0.0 0.0 0.0 16.28999089631971 0.0 0.0 0.0 34.2284985734139" Properties=species:S:1:pos:R:3:initial_magmoms:R:1 pbc="T T T"
Si      -1.35662468      -1.34932305       1.39565070       0.00000000
Si       1.36285398       1.36325421       1.39332316       0.00000000
Si       1.40413284      -1.44289281      -1.44459063       0.00000000
Si      -1.38983999       1.36859407      -1.54557503       0.00000000
Si      -2.68755043       2.71368706       0.03314690       0.00000000
Si      -2.70432602      -2.71264944       0.01062453       0.00000000
Si       2.70954828       2.72157142       0.00612348       0.00000000
Si       2.71063971      -2.72450856       0.04190255       0.00000000
Si       0.00374670      -2.71141140       2.75623427       0.00000000
Si      -2.71213198       0.00571770       2.75661079       0.00000000
