10
Lattice="16.28999089631971 0.0 0.0 0.0 16.28999089631971 0.0 0.0 0.0 34.2284985734139" Properties=species:S:1:pos:R:3:initial_magmoms:R:1 pbc="T T T"
Si       1.35293174       1.34517281      -1.38094955       0.00000000
Si       1.31570909      -1.45932077       1.32690272       0.00000000
Si      -1.36559635      -1.37087116      -1.37718441       0.00000000
Si      -1.39545909       1.28387354       1.55609687       0.00000000
Si      -1.96533216      -0.78633622       2.86656990       0.00000000
Si      -0.17832337      -2.54104193       2.75207551       0.00000000
Si       2.68840223       2.69198114      -0.00041074       0.00000000
Si      -0.00644758       2.69808989      -2.73612502       0.00000000
Si      -2.73436677       2.70120128       0.02324116       0.00000000
Si       2.70835748      -0.01504544      -2.73636462       0.00000000
