10
Lattice="16.28999089631971 0.0 0.0 0.0 16.28999089631971 0.0 0.0 0.0 34.2284985734139" Properties=species:S:1:pos:R:3:initial_magmoms:R:1 pbc="T T T"
Si      -1.34669430      -1.35831721       1.38719967       0.00000000
Si       1.36498797       1.35671265       1.38956144       0.00000000
Si       1.42407180      -1.41873520      -1.41224468       0.00000000
Si      -1.38473145       1.42768818      -1.46413169       0.00000000
Si       0.16646751       2.84560236      -2.53008132       0.00000000
Si      -2.70954828      -2.72157142      -0.00612348       0.00000000
Si      -2.71811682       2.71538010       0.02152289       0.00000000
Si       2.74409937       2.69636967       0.03345153       0.00000000
Si      -2.70726768      -0.00022806       2.75024771       0.00000000
Si       2.74118346      -2.71995146       0.02953579       0.00000000
