10
Lattice="16.28999089631971 0.0 0.0 0.0 16.28999089631971 0.0 0.0 0.0 34.2284985734139" Properties=species:S:1:pos:R:3:initial_magmoms:R:1 pbc="T T T"
Si       1.31711166      -1.30121627       1.44178047       0.00000000
Si      -0.84962124      -1.84735183      -1.21477489       0.00000000
Si       1.21963230       1.29818920      -1.58325861       0.00000000
Si      -1.42407180       1.41873520       1.41224468       0.00000000
Si       2.58888825       2.63895394      -0.00415534       0.00000000
Si       2.59416621      -2.76671056       0.05408790       0.00000000
Si      -0.05701500      -2.65551502       2.80276452       0.00000000
Si       2.66064570       0.05601316       2.80577663       0.00000000
Si      -2.72948724      -2.74572904      -0.03846943       0.00000000
Si       0.69949260      -3.69669037      -1.11165052       0.00000000
