10
Lattice="16.28999089631971 0.0 0.0 0.0 16.28999089631971 0.0 0.0 0.0 34.2284985734139" Properties=species:S:1:pos:R:3:initial_magmoms:R:1 pbc="T T T"
Si      -1.35697329      -1.35643769       1.35767415       0.00000000
Si       1.35793440       1.35868570       1.35740033       0.00000000
Si       1.35896067      -1.35710558      -1.35965941       0.00000000
Si      -1.35479043       1.35882743      -1.36297957       0.00000000
Si       0.00074934      -2.71414403       2.71428723       0.00000000
Si      -2.71463076       0.00099529       2.71480065       0.00000000
Si      -2.71389771      -2.71583819      -0.00006846       0.00000000
Si       2.71531494      -2.71510514       0.00030806       0.00000000
Si       0.00081450       2.71605321       2.71459528       0.00000000
Si       2.71604799       0.00056308       2.71466374       0.00000000
