10
Lattice="16.28999089631971 0.0 0.0 0.0 16.28999089631971 0.0 0.0 0.0 34.2284985734139" Properties=species:S:1:pos:R:3:initial_magmoms:R:1 pbc="T T T"
Si       1.35777150       1.35692442      -1.35712650       0.00000000
Si      -1.35834165      -1.35676152      -1.35712650       0.00000000
Si      -1.35749457       1.35707103       1.35798221       0.00000000
Si       1.35783666      -1.35762489       1.35740033       0.00000000
Si      -2.71272809      -0.00301365      -2.71408185       0.00000000
Si      -0.00210141       2.71370223       2.71466374       0.00000000
Si       2.71489140      -0.00343719       2.71425300       0.00000000
Si       0.00114030       2.71295289      -2.71630671       0.00000000
Si      -2.71456723       2.71477737      -0.00027383       0.00000000
Si      -2.71503801      -2.71476434       0.00030806       0.00000000
