10
Lattice="16.28999089631971 0.0 0.0 0.0 16.28999089631971 0.0 0.0 0.0 34.2284985734139" Properties=species:S:1:pos:R:3:initial_magmoms:R:1 pbc="T T T"
Si       1.68650370      -1.75037679      -0.34036838       0.00000000
Si      -1.84096548      -0.90719010      -1.37016756       0.00000000
Si       0.80005077       1.77614757      -1.51615219       0.00000000
Si      -0.42839442      -1.00398528       2.91260726       0.00000000
Si       1.19118996       2.65313601       2.05158889       0.00000000
Si      -0.42497352      -2.12055075      -2.91192269       0.00000000
Si       2.30681061       0.60882246      -2.91965833       0.00000000
Si       1.71222561       3.49024653      -0.26321730       0.00000000
Si       3.53519064      -0.77980230      -1.48572304       0.00000000
Si      -1.40877549       3.21882255       1.76697877       0.00000000
