10
Lattice="16.28999089631971 0.0 0.0 0.0 16.28999089631971 0.0 0.0 0.0 34.2284985734139" Properties=species:S:1:pos:R:3:initial_magmoms:R:1 pbc="T T T"
Si       1.72100592      -0.84129705       1.41415121       0.00000000
Si      -1.90278603      -1.58794920       0.54159784       0.00000000
Si      -0.80886366       1.84573845       1.57033594       0.00000000
Si       1.08799281       0.40211865      -2.34759712       0.00000000
Si      -1.46694708      -0.07117101      -2.49635425       0.00000000
Si      -3.11813406       1.22122872      -1.18143152       0.00000000
Si       0.43704441      -1.87952391       3.13980045       0.00000000
Si      -2.25306990       2.97408159       0.14454703       0.00000000
Si       1.62230481      -1.85966640      -2.82950042       0.00000000
Si      -0.96979257      -3.23711622       1.88789071       0.00000000
