10
Lattice="16.28999089631971 0.0 0.0 0.0 16.28999089631971 0.0 0.0 0.0 34.2284985734139" Properties=species:S:1:pos:R:3:initial_magmoms:R:1 pbc="T T T"
Si       1.19946528       0.88343928      -1.87154689       0.00000000
Si      -1.65118698       1.29239973       1.31492274       0.00000000
Si       2.55493989       0.47328966       0.14875714       0.00000000
Si      -1.87872570      -1.97553717      -0.79512847       0.00000000
Si       1.46694708       0.07117101       2.49635425       0.00000000
Si      -2.84265387       0.04668714      -1.71700513       0.00000000
Si      -0.43583895      -1.51677819       3.03795209       0.00000000
Si       3.08925189      -1.78849539      -0.33314616       0.00000000
Si      -0.06263505      -3.06747216      -1.87058849       0.00000000
Si      -2.97342999       2.05706862      -0.45849099       0.00000000
