10
Lattice="16.28999089631971 0.0 0.0 0.0 16.28999089631971 0.0 0.0 0.0 34.2284985734139" Properties=species:S:1:pos:R:3:initial_magmoms:R:1 pbc="T T T"
Si       1.44420624      -1.12834314       1.42578890       0.00000000
Si      -0.86506416      -1.75285287      -1.32597855       0.00000000
Si       1.27550700       0.56474172      -1.95982224       0.00000000
Si      -1.32128190       1.57837068       1.27087063       0.00000000
Si      -0.41218587       2.18290887      -2.29077778       0.00000000
Si       3.12629535       0.81451629      -0.34663220       0.00000000
Si      -2.30335713       2.39480919      -0.73317485       0.00000000
Si      -0.14657742      -2.19530556       2.94478347       0.00000000
Si      -2.75802732      -2.51571357      -0.02406265       0.00000000
Si       2.25306990      -2.97408159      -0.14454703       0.00000000
