10
Lattice="16.28999089631971 0.0 0.0 0.0 16.28999089631971 0.0 0.0 0.0 34.2284985734139" Properties=species:S:1:pos:R:3:initial_magmoms:R:1 pbc="T T T"
Si       1.35021294       1.34511417       1.36510174       0.00000000
Si      -1.35596331       1.35449721      -1.35729764       0.00000000
Si       1.35697329      -1.36006839      -1.35938558       0.00000000
Si      -1.35835794      -1.35303111       1.36715545       0.00000000
Si       2.55805128      -0.20264760       2.76367898       0.00000000
Si      -0.11776041       2.58341481       2.78209392       0.00000000
Si      -2.71239903       2.71406061       0.00297788       0.00000000
Si      -2.71207323      -2.71538010       0.00232754       0.00000000
Si       0.00164529       2.71346907      -2.71562214       0.00000000
Si      -2.71365336      -0.00123804      -2.71599865       0.00000000
