10
Lattice="16.28999089631971 0.0 0.0 0.0 16.28999089631971 0.0 0.0 0.0 34.2284985734139" Properties=species:S:1:pos:R:3:initial_magmoms:R:1 pbc="T T T"
Si      -1.35524655       1.35775521       1.35801644       0.00000000
Si      -1.35599589      -1.35799956      -1.35726341       0.00000000
Si       1.35889551       1.35681039      -1.35770838       0.00000000
Si       1.36047564      -1.35733167       1.36061781       0.00000000
Si      -0.00514764       2.68721469       2.71421877       0.00000000
Si      -2.71380811       2.71417464       0.00023960       0.00000000
Si      -2.71357517      -0.00045612      -2.71459528       0.00000000
Si       0.00117288       2.71451673      -2.71432145       0.00000000
Si       2.71658556       2.71254564       0.00099263       0.00000000
Si       2.71573848      -0.00050499      -2.71401340       0.00000000
