10
Lattice="16.28999089631971 0.0 0.0 0.0 16.28999089631971 0.0 0.0 0.0 34.2284985734139" Properties=species:S:1:pos:R:3:initial_magmoms:R:1 pbc="T T T"
Si       1.35257499      -1.35384039       1.35757147       0.00000000
Si      -1.34353404      -1.35722943      -1.36399616       0.00000000
Si       1.34457660       1.35175886      -1.37115334       0.00000000
Si      -1.35935163       1.36189124       1.35654461       0.00000000
Si      -0.07175745       2.58294077      -2.80993197       0.00000000
Si       2.71285515      -2.70835164      -0.00030806       0.00000000
Si      -0.00338832      -2.71074627       2.71442414       0.00000000
Si       2.71164969       0.00359846       2.71391071       0.00000000
Si      -2.71766070      -2.71152819      -0.00301211       0.00000000
Si       2.71384884       2.71785455      -0.00557925       0.00000000
