10
Lattice="16.28999089631971 0.0 0.0 0.0 16.28999089631971 0.0 0.0 0.0 34.2284985734139" Properties=species:S:1:pos:R:3:initial_magmoms:R:1 pbc="T T T"
Si       1.56656043       1.18833921      -1.25567827       0.00000000
Si       1.41633405      -1.23118191       1.43877863       0.00000000
Si      -1.26886068       1.47615093       1.44985155       0.00000000
Si      -1.36925595      -1.34076474      -1.57910327       0.00000000
Si       0.15600933       2.31010119      -2.76522409       0.00000000
Si      -2.58888825      -2.63895394       0.00415534       0.00000000
Si       2.72836323      -2.62794027       0.01150763       0.00000000
Si       0.07175745      -2.58294077       2.80993197       0.00000000
Si      -2.43965556       2.98297593       0.13822845       0.00000000
Si      -2.64797208       0.13649391       2.80596146       0.00000000
