10
Lattice="16.28999089631971 0.0 0.0 0.0 16.28999089631971 0.0 0.0 0.0 34.2284985734139" Properties=species:S:1:pos:R:3:initial_magmoms:R:1 pbc="T T T"
Si      -1.35257499       1.35384039      -1.35757147       0.00000000
Si      -1.35596331      -1.35690587       1.35685267       0.00000000
Si       1.36028016      -1.35451124      -1.35787953       0.00000000
Si       1.35907470       1.35743885       1.35633924       0.00000000
Si      -2.69610903      -0.00338904      -2.72156763       0.00000000
Si       2.70414000       0.00019774      -2.71977406       0.00000000
Si      -2.71314837      -0.00001914       2.71373957       0.00000000
Si      -2.71192662       2.71573163      -0.00102686       0.00000000
Si       0.00128691      -2.71444931       2.71397917       0.00000000
Si       0.00146610       2.71547099       2.71380803       0.00000000
