10
Lattice="16.28999089631971 0.0 0.0 0.0 16.28999089631971 0.0 0.0 0.0 34.2284985734139" Properties=species:S:1:pos:R:3:initial_magmoms:R:1 pbc="T T T"
Si      -1.32975270       1.38438936       1.34937374       0.00000000
Si       1.41305976      -1.33564968       1.35746194       0.00000000
Si      -1.16885637      -1.64160846      -1.33532461       0.00000000
Si       1.10350089       1.74891069      -1.28133977       0.00000000
Si       2.49650766       0.20414628      -2.50128457       0.00000000
Si      -2.61232956       2.72655504      -0.30085498       0.00000000
Si      -2.66523948       0.02026476       2.73052523       0.00000000
Si       0.05018949      -2.69503389       2.72470639       0.00000000
Si       0.04790889       2.73549825       2.72652050       0.00000000
Si      -2.57940747      -0.51984648      -2.84487043       0.00000000
