10
Lattice="16.28999089631971 0.0 0.0 0.0 16.28999089631971 0.0 0.0 0.0 34.2284985734139" Properties=species:S:1:pos:R:3:initial_magmoms:R:1 pbc="T T T"
Si      -1.35003375      -1.33346682      -1.37537030       0.00000000
Si      -1.42058574       1.31931081       1.34898011       0.00000000
Si       1.36604682       1.38116394      -1.37050985       0.00000000
Si       1.24297587      -1.49750712       1.47685785       0.00000000
Si       2.01751650       0.49031271       2.79352624       0.00000000
Si       0.31682421       2.39423904       2.59801295       0.00000000
Si      -2.69076591      -2.69704082      -0.00907056       0.00000000
Si       0.00234576      -2.69204793      -2.73010080       0.00000000
Si       2.73388554      -2.70165577       0.02289888       0.00000000
Si      -2.70993924       0.01958058      -2.73116188       0.00000000
