10
Lattice="16.28999089631971 0.0 0.0 0.0 16.28999089631971 0.0 0.0 0.0 34.2284985734139" Properties=species:S:1:pos:R:3:initial_magmoms:R:1 pbc="T T T"
Si       1.36435266      -1.29989313      -1.30537298       0.00000000
Si       1.49424912       1.07890299       1.42051771       0.00000000
Si      -1.36489023       1.41814224      -1.25628929       0.00000000
Si      -1.03379598      -1.64934621       1.34405120       0.00000000
Si      -0.37496322       1.98834111       2.59072228       0.00000000
Si      -1.64730996      -0.03192840       2.93512962       0.00000000
Si       3.11150403      -0.75839724       1.61558604       0.00000000
Si       2.50571151      -2.60890866       0.20335162       0.00000000
Si       0.01542663      -2.66242131      -2.62447159       0.00000000
Si      -2.70324405       0.05253525      -2.62618302       0.00000000
