10
Lattice="16.28999089631971 0.0 0.0 0.0 16.28999089631971 0.0 0.0 0.0 34.2284985734139" Properties=species:S:1:pos:R:3:initial_magmoms:R:1 pbc="T T T"
Si       1.06707645       1.40133096       1.51909584       0.00000000
Si      -0.64413918      -2.10668796       0.74967299       0.00000000
Si      -1.64722851       1.45274220      -0.77715849       0.00000000
Si       1.75430268      -0.78848487      -1.31584691       0.00000000
Si      -2.29713435      -2.26486386      -0.89172134       0.00000000
Si      -1.22012100      -1.34964279       2.87464783       0.00000000
Si       0.22325445       0.44497764       3.47665900       0.00000000
Si      -1.36115982      -1.49806098      -2.90678841       0.00000000
Si       3.21258348       0.54957573       1.45563617       0.00000000
Si      -1.93508910       0.79405605      -2.95635130       0.00000000
