10
Lattice="16.28999089631971 0.0 0.0 0.0 16.28999089631971 0.0 0.0 0.0 34.2284985734139" Properties=species:S:1:pos:R:3:initial_magmoms:R:1 pbc="T T T"
Si      -1.41064884       1.54474812       1.03486500       0.00000000
Si       0.84382200       0.95635332      -1.95756316       0.00000000
Si      -1.44337545      -1.79462043      -0.60201117       0.00000000
Si       1.99016559      -0.32211846       1.32567049       0.00000000
Si      -0.22325445      -0.44497764      -3.47665900       0.00000000
Si       2.98932903       0.10459809      -2.02102283       0.00000000
Si      -0.61822179       1.56965553       3.24797827       0.00000000
Si       1.25538885      -0.01505196       3.55490539       0.00000000
Si      -0.86739363      -2.55166560      -2.72698601       0.00000000
Si       3.79565145       0.62923383       0.08906260       0.00000000
