10
Lattice="16.28999089631971 0.0 0.0 0.0 16.28999089631971 0.0 0.0 0.0 34.2284985734139" Properties=species:S:1:pos:R:3:initial_magmoms:R:1 pbc="T T T"
Si      -1.01268414       2.00575512       0.64404379       0.00000000
Si      -0.63363213      -0.25244613      -2.25531703       0.00000000
Si       2.22308001      -0.54968976       0.60796693       0.00000000
Si      -1.15183332      -1.73879460       1.14193181       0.00000000
Si       2.79906183      -1.30673493      -1.51700790       0.00000000
Si      -2.23661700      -0.34969743       2.67403449       0.00000000
Si      -3.16097676       1.18807857       1.14117878       0.00000000
Si      -0.00908982       2.46705534       2.67862111       0.00000000
Si       1.14606666      -1.46491083      -3.15840224       0.00000000
Si      -2.82493035      -1.19167866      -2.06261048       0.00000000
