10
Lattice="16.28999089631971 0.0 0.0 0.0 16.28999089631971 0.0 0.0 0.0 34.2284985734139" Properties=species:S:1:pos:R:3:initial_magmoms:R:1 pbc="T T T"
Si       1.35386190       1.35467640       1.35674998       0.00000000
Si      -1.35755973       1.35695700      -1.35729764       0.00000000
Si       1.35729909      -1.35762489      -1.35692113       0.00000000
Si      -1.35852084      -1.35785295       1.35722918       0.00000000
Si       2.71347417       0.00180819       2.71302077       0.00000000
Si      -0.00089595      -2.71388142      -2.71404763       0.00000000
Si       2.71420722       2.71433754       0.00013691       0.00000000
Si       2.71432125      -2.71484253       0.00030806       0.00000000
Si       2.71510317      -0.00065160      -2.71438991       0.00000000
Si      -2.71604799      -0.00096111      -2.71404763       0.00000000
