10
Lattice="16.28999089631971 0.0 0.0 0.0 16.28999089631971 0.0 0.0 0.0 34.2284985734139" Properties=species:S:1:pos:R:3:initial_magmoms:R:1 pbc="T T T"
Si       1.13541300      -0.71084673      -1.97618347       0.00000000
Si      -2.02991319      -1.26249129       0.05141123       0.00000000
Si      -1.03057056       2.06200449      -0.70380678       0.00000000
Si       1.27900935      -0.24275358       2.13264202       0.00000000
Si      -3.08931705      -0.08014680       1.82345582       0.00000000
Si       3.33309690      -0.91958679      -1.15702658       0.00000000
Si       0.39759003       2.72855871      -2.45784717       0.00000000
Si       0.60553188      -2.96644158      -2.36060395       0.00000000
Si       0.08026083       1.08856296       3.69236712       0.00000000
Si       1.06536600      -2.42945802       2.92807855       0.00000000
