10
Lattice="16.28999089631971 0.0 0.0 0.0 16.28999089631971 0.0 0.0 0.0 34.2284985734139" Properties=species:S:1:pos:R:3:initial_magmoms:R:1 pbc="T T T"
Si      -1.35586557      -1.35581670      -1.35627079       0.00000000
Si       1.36060596      -1.35337320       1.35952249       0.00000000
Si       1.35910728       1.35910728      -1.35599696       0.00000000
Si      -1.35697329       1.36006839       1.35938558       0.00000000
Si      -2.71378368       0.00151497      -2.71291808       0.00000000
Si      -2.71293660       2.71456560       0.00208794       0.00000000
Si      -2.71314837      -2.71438641       0.00133491       0.00000000
Si       0.00216657      -2.71393029      -2.71367111       0.00000000
Si      -0.00676035       2.70518256       2.72448732       0.00000000
Si       0.00185706       2.71665072      -2.71312346       0.00000000
