10
Lattice="16.28999089631971 0.0 0.0 0.0 16.28999089631971 0.0 0.0 0.0 34.2284985734139" Properties=species:S:1:pos:R:3:initial_magmoms:R:1 pbc="T T T"
Si       1.37668419       1.75275417      -0.72875937       0.00000000
Si      -0.20149101      -1.85583825      -1.43236078       0.00000000
Si      -2.12097429       1.11191860       0.07003155       0.00000000
Si       0.83052936      -1.22222241       1.89903239       0.00000000
Si      -1.54469925      -3.23916876       0.11904678       0.00000000
Si      -3.37346352      -0.27145656       1.38697377       0.00000000
Si       0.51593688      -3.48912252       1.26693435       0.00000000
Si       1.41183801       3.35571461       0.98362491       0.00000000
Si      -1.86593805      -1.25985231      -3.14909209       0.00000000
Si       3.55389156       0.95669119      -1.27042566       0.00000000
