10
Lattice="16.28999089631971 0.0 0.0 0.0 16.28999089631971 0.0 0.0 0.0 34.2284985734139" Properties=species:S:1:pos:R:3:initial_magmoms:R:1 pbc="T T T"
Si       0.36256653       2.18390486      -0.86331167       0.00000000
Si      -0.45693450      -1.50092802      -1.80572545       0.00000000
Si      -1.65455901       0.60582510       1.72621260       0.00000000
Si       0.44184996      -1.78597044       1.73340059       0.00000000
Si       2.70853830      -1.28487375       1.30225818       0.00000000
Si      -3.29647698      -0.91311966       0.80423325       0.00000000
Si      -2.60602533      -2.18559672      -1.06132365       0.00000000
Si       1.93328091       2.94268166       0.76288520       0.00000000
Si       0.93374280       1.54952013      -3.12930800       0.00000000
Si      -0.69045165      -0.08553879      -3.67576629       0.00000000
