10
Lattice="16.28999089631971 0.0 0.0 0.0 16.28999089631971 0.0 0.0 0.0 34.2284985734139" Properties=species:S:1:pos:R:3:initial_magmoms:R:1 pbc="T T T"
Si      -1.05005340      -1.64885751       1.26416184       0.00000000
Si      -1.27909080       1.92116115      -0.42891756       0.00000000
Si       0.69045165      -1.27247706      -1.86555690       0.00000000
Si       1.64191797       1.51894476       0.92197935       0.00000000
Si      -2.90084175      -1.89863208      -0.34902820       0.00000000
Si      -0.93597453      -0.34560864       3.36032384       0.00000000
Si       3.29647698       0.91311966      -0.80423325       0.00000000
Si       0.32501808       3.53854868       0.78903579       0.00000000
Si      -0.03813489       3.04939419      -2.14712069       0.00000000
Si       0.97881723      -3.45647736      -1.03274284       0.00000000
