10
Lattice="16.28999089631971 0.0 0.0 0.0 16.28999089631971 0.0 0.0 0.0 34.2284985734139" Properties=species:S:1:pos:R:3:initial_magmoms:R:1 pbc="T T T"
Si       1.10283300       1.69859088       1.15277027       0.00000000
Si      -1.75599684      -1.08729723       1.08648332       0.00000000
Si      -1.32424668       0.93656097      -1.78400031       0.00000000
Si       1.68059043      -1.84094430      -0.17896463       0.00000000
Si       2.39557207       0.31253994       2.51839913       0.00000000
Si      -0.20802330      -0.59359131      -3.43419138       0.00000000
Si      -0.35588763      -2.39594039       2.52270508       0.00000000
Si       1.21826394      -2.44873628      -2.46819415       0.00000000
Si       2.34429390       3.06776538      -0.32901448       0.00000000
Si       3.69328250      -1.03255305       0.93967721       0.00000000
