10
Lattice="16.28999089631971 0.0 0.0 0.0 16.28999089631971 0.0 0.0 0.0 34.2284985734139" Properties=species:S:1:pos:R:3:initial_magmoms:R:1 pbc="T T T"
Si       1.14262525       1.39707927       1.65036221       0.00000000
Si       1.39545909      -1.28387354      -1.55609687       0.00000000
Si      -1.33890768       1.41732774      -1.53285571       0.00000000
Si      -0.56987307      -2.07020976       1.31047303       0.00000000
Si       1.32546258      -0.53664147       3.27912622       0.00000000
Si       2.77168553       2.61915507       0.11528165       0.00000000
Si      -2.61635319      -2.78872487      -0.00451816       0.00000000
Si       2.71116818      -2.74319432      -0.22919415       0.00000000
Si       0.02986273      -2.65474470      -2.93328128       0.00000000
Si      -2.68089417       0.05849739      -2.92838660       0.00000000
