10
Lattice="16.28999089631971 0.0 0.0 0.0 16.28999089631971 0.0 0.0 0.0 34.2284985734139" Properties=species:S:1:pos:R:3:initial_magmoms:R:1 pbc="T T T"
Si      -2.14285176       0.14237460      -0.93871710       0.00000000
Si      -0.38330370      -1.87293786       1.40644979       0.00000000
Si       0.21466962       2.25385182       0.72756137       0.00000000
Si       2.05218066      -0.49533003      -1.15552053       0.00000000
Si       1.46209333       2.78568774      -1.17934358       0.00000000
Si      -3.16820952       0.05087367       1.20621296       0.00000000
Si       1.33229461      -1.62837446       2.97928441       0.00000000
Si      -2.17800558      -1.46058583      -2.65110138       0.00000000
Si       3.35885858       1.45683099      -0.88573135       0.00000000
Si      -2.25225540       1.57934808       2.72801286       0.00000000
