10
Lattice="16.28999089631971 0.0 0.0 0.0 16.28999089631971 0.0 0.0 0.0 34.2284985734139" Properties=species:S:1:pos:R:3:initial_magmoms:R:1 pbc="T T T"
Si      -2.29638501       0.37337250      -0.06345967       0.00000000
Si       0.60934374       2.23663085       0.36781965       0.00000000
Si       1.08450675      -1.49678370       1.44683944       0.00000000
Si       1.26286596      -0.46839600      -1.93497233       0.00000000
Si      -2.04970554       1.91131955      -1.83635997       0.00000000
Si       2.97026063       1.65532220       0.35464167       0.00000000
Si       2.73333887      -2.35815003       0.08348335       0.00000000
Si       3.60822590      -0.38712519      -0.84790884       0.00000000
Si      -2.86756128       1.00775723       2.20253666       0.00000000
Si       0.43233660      -2.63610630      -2.64603556       0.00000000
