10
Lattice="16.28999089631971 0.0 0.0 0.0 16.28999089631971 0.0 0.0 0.0 34.2284985734139" Properties=species:S:1:pos:R:3:initial_magmoms:R:1 pbc="T T T"
Si      -1.35379674       1.35809730       1.35986478       0.00000000
Si      -1.35698958      -1.35767376      -1.35750301       0.00000000
Si       1.35777150       1.35755973      -1.35740033       0.00000000
Si       1.35878148      -1.35827649       1.36321917       0.00000000
Si      -0.00487071       2.72062548       2.67896339       0.00000000
Si      -2.71435383       0.00000000      -2.71493757       0.00000000
Si       0.00074934       2.71477737      -2.71462951       0.00000000
Si      -2.71507059       2.71454931      -0.00047920       0.00000000
Si       2.71520091       2.71507059       0.00034229       0.00000000
Si       0.00061902      -2.71570590      -2.71497180       0.00000000
