10
Lattice="16.28999089631971 0.0 0.0 0.0 16.28999089631971 0.0 0.0 0.0 34.2284985734139" Properties=species:S:1:pos:R:3:initial_magmoms:R:1 pbc="T T T"
Si      -1.35827649       1.35913986       1.35497010       0.00000000
Si      -1.35742941      -1.35751086      -1.35774261       0.00000000
Si       1.35753277       1.35742941      -1.35794798       0.00000000
Si       1.36399428      -1.35975888       1.36030975       0.00000000
Si      -2.72007162       0.00555489       2.67862111       0.00000000
Si       2.71477152       2.71305063      -0.00075303       0.00000000
Si      -2.71445157      -0.00029322      -2.71497180       0.00000000
Si       0.00004887       2.71437012      -2.71507448       0.00000000
Si      -2.71788876       2.71200807      -0.00130068       0.00000000
Si      -2.71520091      -2.71507059      -0.00034229       0.00000000
