10
Lattice="16.28999089631971 0.0 0.0 0.0 16.28999089631971 0.0 0.0 0.0 34.2284985734139" Properties=species:S:1:pos:R:3:initial_magmoms:R:1 pbc="T T T"
Si       0.08198757       1.89260478      -1.57519638       0.00000000
Si      -1.29132459      -0.46558449       2.04700227       0.00000000
Si       2.43355742       0.19971540       0.40872273       0.00000000
Si      -2.36262015      -0.90227052      -1.65121792       0.00000000
Si      -0.52380495       0.04209336      -2.98743080       0.00000000
Si      -0.38147922      -2.39560740       3.05561400       0.00000000
Si      -1.18695456       1.43264034       3.43089547       0.00000000
Si       3.52200781      -1.38921120      -1.23315081       0.00000000
Si      -3.60632907      -0.92525571       1.49099423       0.00000000
Si      -0.41663304      -3.99856783       1.34322972       0.00000000
