10
Lattice="16.28999089631971 0.0 0.0 0.0 16.28999089631971 0.0 0.0 0.0 34.2284985734139" Properties=species:S:1:pos:R:3:initial_magmoms:R:1 pbc="T T T"
Si      -1.23432588       1.39030263       1.42858880       0.00000000
Si       1.50035823      -1.32755355       1.40176049       0.00000000
Si       0.80215218       1.94529871      -1.27308091       0.00000000
Si      -1.94308749      -0.82101600      -1.32670902       0.00000000
Si      -2.58222564      -2.73471633      -0.04209081       0.00000000
Si      -2.63443509       2.69894579      -0.00763296       0.00000000
Si      -2.57818572       0.03559365       2.79048333       0.00000000
Si       0.33982569       1.33750674      -3.56231043       0.00000000
Si       0.13330107      -2.68327251       2.78866922       0.00000000
Si       0.13405041       2.74739877       2.78709471       0.00000000
