10
Lattice="16.28999089631971 0.0 0.0 0.0 16.28999089631971 0.0 0.0 0.0 34.2284985734139" Properties=species:S:1:pos:R:3:initial_magmoms:R:1 pbc="T T T"
Si      -1.35689184       1.35679436       1.35743456       0.00000000
Si       1.35745929       1.35717475      -1.35722918       0.00000000
Si      -1.35671265      -1.35760860      -1.35839295       0.00000000
Si       1.35784765      -1.35775521       1.35726341       0.00000000
Si      -2.71327869       0.00195480      -2.71449260       0.00000000
Si      -2.71448415       2.71390490      -0.00027383       0.00000000
Si       0.00071676       2.71373222       2.71466374       0.00000000
Si       2.71517552       2.71479759      -0.00003423       0.00000000
Si       2.71528140      -0.00089595       2.71469797       0.00000000
Si      -2.71450044      -2.71577106      -0.00041074       0.00000000
