10
Lattice="16.28999089631971 0.0 0.0 0.0 16.28999089631971 0.0 0.0 0.0 34.2284985734139" Properties=species:S:1:pos:R:3:initial_magmoms:R:1 pbc="T T T"
Si      -1.36024758       1.35376416      -1.36003592       0.00000000
Si       1.35397593      -1.36109466      -1.36013861       0.00000000
Si       1.36228383       1.35055503       1.36996219       0.00000000
Si      -1.36601424      -1.37549502       1.35965941       0.00000000
Si      -2.71226871       2.71154239       0.00290942       0.00000000
Si       2.71025191       2.71426730      -0.00160874       0.00000000
Si      -2.71495656      -2.71428867      -0.00174565       0.00000000
Si      -0.00107514       2.71296944      -2.71719665       0.00000000
Si       2.71366435      -0.00158013      -2.71736779       0.00000000
Si       2.71502172      -2.71816569       0.00082148       0.00000000
