10
Lattice="16.28999089631971 0.0 0.0 0.0 16.28999089631971 0.0 0.0 0.0 34.2284985734139" Properties=species:S:1:pos:R:3:initial_magmoms:R:1 pbc="T T T"
Si      -1.85316669       1.40401881       0.23473917       0.00000000
Si       0.20777895      -1.61863956       1.74637320       0.00000000
Si       2.04788106       1.22171742       0.24100299       0.00000000
Si      -0.70245738      -1.05831243      -2.12661780       0.00000000
Si       2.87878509       1.07890299      -1.90978015       0.00000000
Si      -3.61491390      -0.04792518      -0.42583699       0.00000000
Si      -1.57978791       2.92398984      -1.58430117       0.00000000
Si       0.90754848      -2.67573024      -2.58623834       0.00000000
Si      -2.88064215      -1.88944452      -1.71022789       0.00000000
Si      -0.67940703      -3.69607068       0.87498360       0.00000000
