10
Lattice="16.28999089631971 0.0 0.0 0.0 16.28999089631971 0.0 0.0 0.0 34.2284985734139" Properties=species:S:1:pos:R:3:initial_magmoms:R:1 pbc="T T T"
Si       1.18905597       1.82123829      -0.76976513       0.00000000
Si      -0.41704029       0.85700061       2.15150194       0.00000000
Si      -1.79201403      -0.93986784      -1.25005969       0.00000000
Si       1.36176255      -1.66211757       1.06046794       0.00000000
Si       1.50613823      -0.33383097       2.96898163       0.00000000
Si      -2.26435887      -2.73626388       0.19684821       0.00000000
Si      -0.04825098      -3.50050923       0.76487046       0.00000000
Si       2.83788809       0.95987196      -2.13312122       0.00000000
Si       2.11233963       2.77956270       1.21069690       0.00000000
Si      -2.68372863       0.35590392       2.58264435       0.00000000
