10
Lattice="16.28999089631971 0.0 0.0 0.0 16.28999089631971 0.0 0.0 0.0 34.2284985734139" Properties=species:S:1:pos:R:3:initial_magmoms:R:1 pbc="T T T"
Si       1.87835007      -0.44984835      -1.36742928       0.00000000
Si       0.46232649       0.60779197       2.28922952       0.00000000
Si      -0.65102985      -2.37241044      -0.42662424       0.00000000
Si      -1.42628724       1.85514497      -0.96599723       0.00000000
Si      -1.21826394       2.44873628       2.46819415       0.00000000
Si       0.95506641      -1.40817276      -3.34789132       0.00000000
Si       3.15423989      -2.06922096      -0.04702998       0.00000000
Si       1.27214867      -3.56324202       0.39085544       0.00000000
Si      -0.33982569      -1.33750674       3.56231043       0.00000000
Si      -2.28291318      -2.15852274       2.23560141       0.00000000
