10
Lattice="16.28999089631971 0.0 0.0 0.0 16.28999089631971 0.0 0.0 0.0 34.2284985734139" Properties=species:S:1:pos:R:3:initial_magmoms:R:1 pbc="T T T"
Si       1.34770133       1.36332639       1.38502616       0.00000000
Si      -1.36705716      -1.35571896       1.38690873       0.00000000
Si      -1.50035823       1.32755355      -1.40176049       0.00000000
Si       1.51612853      -1.30582269      -1.42785973       0.00000000
Si      -2.70907623      -2.69851995       0.02089651       0.00000000
Si       2.70432602       2.71264944      -0.01062453       0.00000000
Si       2.71794446      -2.70239697       0.02977539       0.00000000
Si      -2.73468411       2.71785618       0.02682831       0.00000000
Si       2.70807272       0.00123804       2.74560974       0.00000000
Si      -0.00811072      -2.71104696       2.74574666       0.00000000
