10
Lattice="16.28999089631971 0.0 0.0 0.0 16.28999089631971 0.0 0.0 0.0 34.2284985734139" Properties=species:S:1:pos:R:3:initial_magmoms:R:1 pbc="T T T"
Si       1.35749457      -1.35542574      -1.35253988       0.00000000
Si      -1.35782363      -1.35557235       1.35746878       0.00000000
Si       1.35692442       1.35940050       1.35774261       0.00000000
Si      -1.36037138       1.36208835      -1.36058358       0.00000000
Si       0.00987174      -2.70363501      -2.71583435       0.00000000
Si       2.70689301      -0.01309716      -2.71433172       0.00000000
Si       2.71484253      -2.71067229       0.00071880       0.00000000
Si      -0.00024435      -2.71311579       2.71480065       0.00000000
Si      -2.71618344      -2.71228500       0.00013691       0.00000000
Si       2.71464705       0.00169416       2.71435568       0.00000000
