10
Lattice="16.28999089631971 0.0 0.0 0.0 16.28999089631971 0.0 0.0 0.0 34.2284985734139" Properties=species:S:1:pos:R:3:initial_magmoms:R:1 pbc="T T T"
Si      -1.35371845       1.35564001      -1.35835873       0.00000000
Si       1.36084619      -1.35898817      -1.35832450       0.00000000
Si      -1.34796808      -1.36371227       1.37157093       0.00000000
Si       1.36559635       1.37087116       1.37718441       0.00000000
Si       2.68130544      -0.08844962       2.70408713       0.00000000
Si      -2.71075690       2.71324209       0.00489468       0.00000000
Si      -2.71025191      -2.71426730       0.00160874       0.00000000
Si      -2.71132705      -0.00129786      -2.71558791       0.00000000
Si       0.00409601       2.71348644      -2.71599865       0.00000000
Si       0.00341244      -2.71584743      -2.71575905       0.00000000
