10
Lattice="16.28999089631971 0.0 0.0 0.0 16.28999089631971 0.0 0.0 0.0 34.2284985734139" Properties=species:S:1:pos:R:3:initial_magmoms:R:1 pbc="T T T"
Si      -1.35743375      -1.35685926      -1.35743456       0.00000000
Si       1.35732352       1.35777507      -1.35743456       0.00000000
Si       1.35856157      -1.35641943       1.35777684       0.00000000
Si      -1.36084619       1.35898817       1.35832450       0.00000000
Si       2.70866047      -0.02695995       2.71397917       0.00000000
Si       2.71310764       2.71481388      -0.00085571       0.00000000
Si       2.71380811      -2.71417464      -0.00023960       0.00000000
Si      -2.71456464       2.71462817      -0.00003423       0.00000000
Si       0.00023295      -2.71463076      -2.71483488       0.00000000
Si       2.71498099       0.00034209      -2.71456105       0.00000000
