10
Lattice="16.28999089631971 0.0 0.0 0.0 16.28999089631971 0.0 0.0 0.0 34.2284985734139" Properties=species:S:1:pos:R:3:initial_magmoms:R:1 pbc="T T T"
Si       0.16640235       2.32648634      -0.28337790       0.00000000
Si      -0.85141314       0.13825323       2.28571196       0.00000000
Si       2.59996545      -0.56568654       0.28461012       0.00000000
Si      -1.88598615       0.28797462      -1.92425881       0.00000000
Si       1.48579461       2.11681287      -2.20055140       0.00000000
Si       1.42304553       2.77958781       1.58974350       0.00000000
Si      -0.39195369       1.36969578      -3.34943160       0.00000000
Si      -3.15862190       0.08465913       1.88150739       0.00000000
Si       3.12100110       0.27142398      -2.03019607       0.00000000
Si       3.29862726       1.48756861       1.12635783       0.00000000
