10
Lattice="16.28999089631971 0.0 0.0 0.0 16.28999089631971 0.0 0.0 0.0 34.2284985734139" Properties=species:S:1:pos:R:3:initial_magmoms:R:1 pbc="T T T"
Si       1.33547049       1.34680833       1.38053880       0.00000000
Si      -1.35937932       1.35291708      -1.35517547       0.00000000
Si       1.35542574      -1.36021826      -1.35541507       0.00000000
Si      -1.35293174      -1.34517281       1.38094955       0.00000000
Si       2.67273288      -0.08775423       2.71076169       0.00000000
Si      -2.70887129       2.71078632       0.00609268       0.00000000
Si      -0.00024435       2.71249677      -2.71161740       0.00000000
Si      -2.71443208      -0.00255753      -2.71223351       0.00000000
Si       2.71508688      -0.00219915      -2.71219929       0.00000000
Si      -0.00035838      -2.71725707      -2.71199391       0.00000000
