10
Lattice="16.28999089631971 0.0 0.0 0.0 16.28999089631971 0.0 0.0 0.0 34.2284985734139" Properties=species:S:1:pos:R:3:initial_magmoms:R:1 pbc="T T T"
Si       0.79011550       1.63706355       1.48527807       0.00000000
Si      -1.51088677       1.35910728      -1.24424085       0.00000000
Si      -1.07623699      -2.05153002       0.68836972       0.00000000
Si       1.77401521      -0.51598575      -1.56718691       0.00000000
Si       0.25458989      -3.35911203      -0.75323276       0.00000000
Si       1.63128223       1.46334699      -2.82231243       0.00000000
Si       2.17769770       0.46174005       2.86496116       0.00000000
Si      -0.68035741       3.52681758      -0.53317762       0.00000000
Si      -0.67998274       1.21629285      -3.39502399       0.00000000
Si      -3.35098888      -1.48124970       0.26112936       0.00000000
