10
Lattice="16.28999089631971 0.0 0.0 0.0 16.28999089631971 0.0 0.0 0.0 34.2284985734139" Properties=species:S:1:pos:R:3:initial_magmoms:R:1 pbc="T T T"
Si      -1.87835007       0.44984835       1.36742928       0.00000000
Si       1.06431530       2.01533757      -0.68576835       0.00000000
Si      -0.92328366      -0.95832441      -1.98046203       0.00000000
Si       1.27588982      -1.61937261       1.32039930       0.00000000
Si      -2.52937992      -1.92256209       0.94080504       0.00000000
Si      -0.60620140      -3.11339367       1.75828473       0.00000000
Si       3.04136743       1.87983898       0.68843818       0.00000000
Si       3.16706107      -1.83127293      -0.23720363       0.00000000
Si      -2.11233963      -2.77956270      -1.21069690       0.00000000
Si       0.72554845      -1.81969074      -3.34381812       0.00000000
