10
Lattice="16.28999089631971 0.0 0.0 0.0 16.28999089631971 0.0 0.0 0.0 34.51877397758722" Properties=species:S:1:pos:R:3:initial_magmoms:R:1 pbc="T T T"
Si       0.02562417       0.09974367      -2.33095055       0.00000000
Si      -1.24049979      -1.92699297       0.55326722       0.00000000
Si       2.18409804      -0.43157097       0.91160681       0.00000000
Si      -1.36478760       2.04875162       0.66766250       0.00000000
Si       1.37714031      -1.38846186       2.93036940       0.00000000
Si       2.74116717       1.80094977       1.39086574       0.00000000
Si       1.65423321       1.76217142      -2.63205799       0.00000000
Si      -0.94662656      -1.94502600       2.86095210       0.00000000
Si      -2.12175947       0.87197112      -2.76416141       0.00000000
Si      -2.31777215       2.75782274      -1.37726533       0.00000000
