10
Lattice="16.28999089631971 0.0 0.0 0.0 16.28999089631971 0.0 0.0 0.0 34.51877397758722" Properties=species:S:1:pos:R:3:initial_magmoms:R:1 pbc="T T T"
Si       2.28838662       0.10743255       0.56793771       0.00000000
Si      -1.14674174       1.32233490      -1.59856532       0.00000000
Si       0.85584565      -2.01425850      -1.06048637       0.00000000
Si      -0.64275111       0.78413544       2.28117445       0.00000000
Si      -1.67093765       2.61337931       1.07318928       0.00000000
Si       3.17961252      -1.45769436      -0.99106907       0.00000000
Si      -2.76386633      -0.29820474      -2.38459276       0.00000000
Si      -3.11967251      -1.96123455      -0.31450073       0.00000000
Si      -0.09763574      -3.75232005       0.16969439       0.00000000
Si       0.43768461       1.97951912      -3.25377597       0.00000000
