10
Lattice="16.28999089631971 0.0 0.0 0.0 16.28999089631971 0.0 0.0 0.0 34.51877397758722" Properties=species:S:1:pos:R:3:initial_magmoms:R:1 pbc="T T T"
Si       1.62401526       0.94831095      -1.41143000       0.00000000
Si      -1.35563751      -1.16260427      -1.53362653       0.00000000
Si      -1.48770054       1.24345317       1.34380627       0.00000000
Si       1.22934114      -1.50241367       1.35071348       0.00000000
Si       0.39055275      -1.59722051      -3.07747956       0.00000000
Si       2.58308901       2.55041616       0.06273791       0.00000000
Si      -0.12833262       2.59122261       2.72241783       0.00000000
Si       2.59555086      -0.12941591       2.72107160       0.00000000
Si      -2.67480171      -2.67227906      -0.10203410       0.00000000
Si       2.49983082      -2.93148554      -0.14708113       0.00000000
