10
Lattice="16.28999089631971 0.0 0.0 0.0 16.28999089631971 0.0 0.0 0.0 34.51877397758722" Properties=species:S:1:pos:R:3:initial_magmoms:R:1 pbc="T T T"
Si       1.04749587       1.54482713       1.44764915       0.00000000
Si       1.31098662      -1.36432319      -1.46121504       0.00000000
Si      -1.42365966       1.33301151      -1.44019309       0.00000000
Si      -0.32086413      -1.67845955       1.82466341       0.00000000
Si       2.67374286       2.62609868      -0.00024163       0.00000000
Si       2.77215075      -2.60146724      -0.07566519       0.00000000
Si       2.65903299      -0.01906241      -2.83195632       0.00000000
Si      -0.05105286       2.69868692      -2.82412055       0.00000000
Si      -0.05828562      -2.73058178      -2.82764147       0.00000000
Si      -2.92173272       2.64204659      -0.00945815       0.00000000
