10
Lattice="16.28999089631971 0.0 0.0 0.0 16.28999089631971 0.0 0.0 0.0 34.51877397758722" Properties=species:S:1:pos:R:3:initial_magmoms:R:1 pbc="T T T"
Si      -1.61082036      -0.91914696      -1.56301096       0.00000000
Si       0.93154365      -2.19732878       0.51046391       0.00000000
Si       1.06528455       1.78007346      -1.39286783       0.00000000
Si      -0.99517239      -0.45527292       2.45345775       0.00000000
Si       3.13517340       0.61470315       0.58630170       0.00000000
Si      -1.41413490      -2.71620437       1.38240863       0.00000000
Si      -0.27310185      -2.19927055      -3.04693936       0.00000000
Si      -3.23706735      -2.00041852      -0.11512018       0.00000000
Si       2.44341855       0.51440562      -3.00455028       0.00000000
Si       1.14188013      -3.40833275      -1.68524201       0.00000000
