10
Lattice="16.28999089631971 0.0 0.0 0.0 16.28999089631971 0.0 0.0 0.0 34.51877397758722" Properties=species:S:1:pos:R:3:initial_magmoms:R:1 pbc="T T T"
Si      -0.20523771      -1.87419612       1.42610943       0.00000000
Si       1.92415851       1.32531367       0.45771920       0.00000000
Si       0.23760594      -1.09770069      -2.11158362       0.00000000
Si      -2.07546003       1.22529308      -0.00859518       0.00000000
Si      -3.09969378       0.16982325      -1.92949699       0.00000000
Si       0.38652912      -1.17501303       3.58688233       0.00000000
Si       1.68350634       2.28647255       2.57406641       0.00000000
Si      -1.89714969      -1.74244260      -2.90810478       0.00000000
Si       1.91143602       3.30482560      -0.85219997       0.00000000
Si       3.91039821      -0.00804563       0.56210403       0.00000000
