10
Lattice="16.28999089631971 0.0 0.0 0.0 16.28999089631971 0.0 0.0 0.0 34.51877397758722" Properties=species:S:1:pos:R:3:initial_magmoms:R:1 pbc="T T T"
Si      -2.18613429       1.00382238       0.05308990       0.00000000
Si       1.08998019       0.79956207       2.14057941       0.00000000
Si      -0.41896251      -2.26093145      -1.07104912       0.00000000
Si       0.99517239       0.45527292      -2.45345775       0.00000000
Si       1.92671604      -1.74205586      -1.94299384       0.00000000
Si      -0.71452827       2.12446035       2.83875652       0.00000000
Si      -2.24189496      -1.54514560      -2.56857793       0.00000000
Si      -0.58384989      -3.60296423       0.88119575       0.00000000
Si      -2.71049310       1.03102668       2.40882495       0.00000000
Si       1.10270268      -1.17994986       3.45049858       0.00000000
