10
Lattice="16.28999089631971 0.0 0.0 0.0 16.28999089631971 0.0 0.0 0.0 34.51877397758722" Properties=species:S:1:pos:R:3:initial_magmoms:R:1 pbc="T T T"
Si       0.24065217      -0.96115887      -2.11634722       0.00000000
Si      -1.90830834       1.21402854       0.76973457       0.00000000
Si       1.24712982       2.05785054       0.10600721       0.00000000
Si       0.58091769      -2.04592952       1.16580321       0.00000000
Si       1.44223515       1.97346834       2.43198706       0.00000000
Si       0.22792968       1.01835306      -3.42626638       0.00000000
Si      -0.90262890       2.26360953       2.67051192       0.00000000
Si      -1.98907416       3.14787960      -0.58188330       0.00000000
Si       2.22689187      -2.29451818      -2.01196238       0.00000000
Si      -1.68350634      -2.28647255      -2.57406641       0.00000000
