10
Lattice="16.28999089631971 0.0 0.0 0.0 16.28999089631971 0.0 0.0 0.0 34.51877397758722" Properties=species:S:1:pos:R:3:initial_magmoms:R:1 pbc="T T T"
Si      -0.46861443       2.29669452       0.35185006       0.00000000
Si      -0.26971353      -0.83292236       2.20454273       0.00000000
Si       2.27258532      -0.43725129      -0.59897010       0.00000000
Si      -1.35664749      -0.87170071      -1.81838099       0.00000000
Si       1.98373104      -0.82629722      -2.88601275       0.00000000
Si      -0.82678266      -3.06544310       1.72528381       0.00000000
Si       0.09159867       2.50888806       2.61586867       0.00000000
Si      -1.48149405       0.86467320       3.31376963       0.00000000
Si       0.10583613      -2.24185328      -3.03900004       0.00000000
Si       0.50018445       3.48324183      -1.38130403       0.00000000
