10
Lattice="16.28999089631971 0.0 0.0 0.0 16.28999089631971 0.0 0.0 0.0 34.51877397758722" Properties=species:S:1:pos:R:3:initial_magmoms:R:1 pbc="T T T"
Si       0.18642276       2.31099714      -0.57535925       0.00000000
Si      -1.40856372       0.36624807       1.91303152       0.00000000
Si       2.07546003      -1.22529308       0.00859518       0.00000000
Si      -1.02423375      -1.05546983      -1.92090181       0.00000000
Si       0.71078157       2.28379284      -2.93109429       0.00000000
Si      -2.95558104      -2.13433928      -1.19573100       0.00000000
Si      -0.00949707       0.85403583       3.77359448       0.00000000
Si       1.87022232      -3.09948920       1.43470460       0.00000000
Si       2.31306597      -2.32299377      -2.10298844       0.00000000
Si      -2.61052137       2.43993249       1.70660914       0.00000000
