10
Lattice="16.28999089631971 0.0 0.0 0.0 16.28999089631971 0.0 0.0 0.0 34.51877397758722" Properties=species:S:1:pos:R:3:initial_magmoms:R:1 pbc="T T T"
Si      -1.35677781      -1.35752715      -1.35696828       0.00000000
Si       1.35793440       1.35726651      -1.35641598       0.00000000
Si      -1.35755973       1.35728280       1.35769318       0.00000000
Si       1.35762489      -1.35796698       1.35793481       0.00000000
Si      -2.71175720      -0.00179190      -2.71607673       0.00000000
Si       2.71164969       0.00311139      -2.71631836       0.00000000
Si      -2.71399056       0.00107514       2.71524828       0.00000000
Si      -2.71497285       2.71463076       0.00024163       0.00000000
Si       2.71510317       2.71464705       0.00010356       0.00000000
Si      -2.71483113      -2.71501846       0.00020711       0.00000000
