10
Lattice="16.28999089631971 0.0 0.0 0.0 16.28999089631971 0.0 0.0 0.0 34.51877397758722" Properties=species:S:1:pos:R:3:initial_magmoms:R:1 pbc="T T T"
Si      -1.35790182      -1.34956134      -1.38054462       0.00000000
Si       1.35220032       1.36741518      -1.38044106       0.00000000
Si      -1.55934396       1.23043257       1.35983334       0.00000000
Si       1.36689390      -1.42214958       1.44333430       0.00000000
Si       2.70461241      -2.70227317      -0.04059410       0.00000000
Si      -0.27205929       2.89644345       2.48911566       0.00000000
Si      -0.25935309      -2.50342114       2.89122509       0.00000000
Si       2.72596860       2.69788464      -0.01332425       0.00000000
Si      -2.73050862      -2.71523675       0.00338284       0.00000000
Si      -0.00275301      -2.70834771      -2.74355369       0.00000000
