10
Lattice="16.28999089631971 0.0 0.0 0.0 16.28999089631971 0.0 0.0 0.0 34.51877397758722" Properties=species:S:1:pos:R:3:initial_magmoms:R:1 pbc="T T T"
Si      -1.31810535       1.39061214       1.32731664       0.00000000
Si      -1.37376828      -1.33046946      -1.36711681       0.00000000
Si       1.34421822       1.38126168      -1.36977475       0.00000000
Si       1.31703021      -1.42081380       1.62680169       0.00000000
Si       2.69516421      -2.68648164       0.01511923       0.00000000
Si      -0.01397682      -2.69185734      -2.72822734       0.00000000
Si      -2.72596860      -2.69788464       0.01332425       0.00000000
Si       2.70107748       0.02508660      -2.72895224       0.00000000
Si       2.70734913       2.72337849       0.00041423       0.00000000
Si      -2.72842839       0.02578707      -2.73009136       0.00000000
