10
Lattice="16.28999089631971 0.0 0.0 0.0 16.28999089631971 0.0 0.0 0.0 34.51877397758722" Properties=species:S:1:pos:R:3:initial_magmoms:R:1 pbc="T T T"
Si      -2.00355597       1.01722905      -0.39706968       0.00000000
Si       0.12634524      -2.14658217      -0.78057347       0.00000000
Si       2.00182923       0.99476514      -0.58657785       0.00000000
Si      -1.02960945       0.54519372       2.19190885       0.00000000
Si      -3.10713831      -0.31861611       1.22793703       0.00000000
Si      -1.56354678       2.97119826       0.83034957       0.00000000
Si       2.15024742      -2.83551885       0.12937644       0.00000000
Si       1.47913200       1.94277798      -2.71189996       0.00000000
Si       0.08860131      -1.06637598       3.53931543       0.00000000
Si       2.10460284      -2.04858153       2.41849021       0.00000000
