10
Lattice="16.28999089631971 0.0 0.0 0.0 16.28999089631971 0.0 0.0 0.0 34.51877397758722" Properties=species:S:1:pos:R:3:initial_magmoms:R:1 pbc="T T T"
Si      -1.35314514       1.35617508      -1.36042016       0.00000000
Si      -1.35099486      -1.36037790       1.36680614       0.00000000
Si       1.36111095      -1.35961227      -1.36042016       0.00000000
Si       1.36396170       1.36893015       1.35883230       0.00000000
Si       0.05734080      -2.70844056       2.69598679       0.00000000
Si      -2.71135647      -0.00218286      -2.71718133       0.00000000
Si       2.71448415       2.71430496      -0.00393514       0.00000000
Si      -2.71565703       2.71422351      -0.00207113       0.00000000
Si       0.00355122       2.71316466      -2.71804430       0.00000000
Si      -2.71349046      -2.71868697       0.00117364       0.00000000
