10
Lattice="16.28999089631971 0.0 0.0 0.0 16.28999089631971 0.0 0.0 0.0 34.51877397758722" Properties=species:S:1:pos:R:3:initial_magmoms:R:1 pbc="T T T"
Si      -1.40835847       1.33832124      -1.34005407       0.00000000
Si       1.56417720      -0.92478330      -1.52100159       0.00000000
Si       1.15420677       0.92180223       1.86052844       0.00000000
Si      -1.39882556      -1.81332135       0.77629314       0.00000000
Si       0.16511055      -1.41257106      -3.38156454       0.00000000
Si       0.40589304      -0.44598762       3.66620651       0.00000000
Si      -3.60360442       0.70016049      -0.67104534       0.00000000
Si      -1.03684710       0.66111336      -3.58798693       0.00000000
Si      -0.44584101      -2.52239247       2.82122097       0.00000000
Si       2.57317980      -2.80897267      -0.47849951       0.00000000
