10
Lattice="16.28999089631971 0.0 0.0 0.0 16.28999089631971 0.0 0.0 0.0 34.51877397758722" Properties=species:S:1:pos:R:3:initial_magmoms:R:1 pbc="T T T"
Si       2.04007815       1.01545344      -0.69020327       0.00000000
Si      -0.27157059      -1.93826565      -1.55420867       0.00000000
Si      -1.99645353       1.33721352      -0.95658480       0.00000000
Si       0.41686110      -0.96769116       2.38531765       0.00000000
Si       1.90200411      -2.78837559      -0.91053673       0.00000000
Si       1.34407161      -2.95463133       1.43180503       0.00000000
Si       1.18503234       2.97356031      -1.62852763       0.00000000
Si       2.62376514       2.50795953       1.22710858       0.00000000
Si      -2.27339982      -2.93303079      -0.96763081       0.00000000
Si      -3.83694660       0.03816747      -0.13728124       0.00000000
