10
Lattice="16.28999089631971 0.0 0.0 0.0 16.28999089631971 0.0 0.0 0.0 34.51877397758722" Properties=species:S:1:pos:R:3:initial_magmoms:R:1 pbc="T T T"
Si      -1.35677781       1.35654086       1.35734799       0.00000000
Si       1.35840681       1.35607214      -1.35648502       0.00000000
Si       1.35715248      -1.35729909       1.35731347       0.00000000
Si      -1.35782037      -1.35682668      -1.35752058       0.00000000
Si       2.71336014      -0.00206883      -2.71248678       0.00000000
Si       0.00032580       2.71424210       2.71379849       0.00000000
Si       2.71583622       0.00096111       2.71276293       0.00000000
Si      -2.71488977      -0.00060273       2.71390205       0.00000000
Si       0.00045612      -2.71428867       2.71493761       0.00000000
Si       2.71472850       2.71462491       0.00017259       0.00000000
