10
Lattice="16.28999089631971 0.0 0.0 0.0 16.28999089631971 0.0 0.0 0.0 34.51877397758722" Properties=species:S:1:pos:R:3:initial_magmoms:R:1 pbc="T T T"
Si      -1.35052245      -1.34537481       1.36276744       0.00000000
Si      -1.35224919       1.35711990      -1.35865970       0.00000000
Si       1.36133901      -1.35918873      -1.35627791       0.00000000
Si       1.35521397       1.36311462       1.37360634       0.00000000
Si       0.04813695      -2.64692952       2.69049830       0.00000000
Si      -2.59970481       0.12903309       2.75384029       0.00000000
Si      -2.71282257       2.71143792      -0.00245083       0.00000000
Si      -2.71093293      -0.00114030      -2.71410916       0.00000000
Si       0.00421911       2.71376379      -2.71445435       0.00000000
Si      -2.71448415      -2.71430496       0.00393514       0.00000000
