10
Lattice="16.28999089631971 0.0 0.0 0.0 16.28999089631971 0.0 0.0 0.0 34.51877397758722" Properties=species:S:1:pos:R:3:initial_magmoms:R:1 pbc="T T T"
Si       0.55706913       2.23252074       0.47925893       0.00000000
Si      -0.80695773      -0.95689089       2.01876259       0.00000000
Si      -2.18409804       0.43157097      -0.91160681       0.00000000
Si       1.90897623      -0.92520684      -1.44316171       0.00000000
Si       0.82678266       3.06544310      -1.72528381       0.00000000
Si      -3.42459783      -1.49542200      -0.35833959       0.00000000
Si       0.90344340      -2.28343446       2.89795625       0.00000000
Si      -2.15847387       0.53131464      -3.24255736       0.00000000
Si       3.76922907       0.78506397       0.96514546       0.00000000
Si      -3.13072460      -1.51345503       1.94934529       0.00000000
