10
Lattice="16.28999089631971 0.0 0.0 0.0 16.28999089631971 0.0 0.0 0.0 34.51877397758722" Properties=species:S:1:pos:R:3:initial_magmoms:R:1 pbc="T T T"
Si      -1.74619026       0.43461624       1.54385303       0.00000000
Si      -0.06607224       1.29387953      -2.00892473       0.00000000
Si       0.43839648      -2.27493108      -0.91819990       0.00000000
Si       1.15699725      -0.49907673      -2.77586328       0.00000000
Si       1.23346251       2.54553146       1.66604956       0.00000000
Si       1.22657184      -2.87829639       1.31381979       0.00000000
Si      -0.39055275       1.59722051       3.07747956       0.00000000
Si       3.09948201       0.52134094       1.69290518       0.00000000
Si      -3.35722239       1.53850320       0.09582417       0.00000000
Si       2.10927807      -1.33426503       2.93039843       0.00000000
