10
Lattice="16.28999089631971 0.0 0.0 0.0 16.28999089631971 0.0 0.0 0.0 34.51877397758722" Properties=species:S:1:pos:R:3:initial_magmoms:R:1 pbc="T T T"
Si       2.36478672      -0.28768140       0.04173322       0.00000000
Si      -0.90653850       1.94950575       1.03111087       0.00000000
Si      -0.72345519      -1.76586858       1.50001416       0.00000000
Si       2.79668349       0.86578092       2.02891111       0.00000000
Si      -0.60424497      -0.48221658       3.54052359       0.00000000
Si      -1.71188352       2.43097299      -2.08983678       0.00000000
Si      -3.06709749       2.04768558       0.16023624       0.00000000
Si       2.63827953      -2.64602054      -0.07138486       0.00000000
Si       1.97482041       2.03090688      -2.59446702       0.00000000
Si       0.44494506       3.84088878       0.44474013       0.00000000
