10
Lattice="16.28999089631971 0.0 0.0 0.0 16.28999089631971 0.0 0.0 0.0 34.51877397758722" Properties=species:S:1:pos:R:3:initial_magmoms:R:1 pbc="T T T"
Si       0.44875692       1.47676995      -1.77481827       0.00000000
Si      -1.29836187      -1.64610189      -1.16942768       0.00000000
Si       2.24624439      -0.78821771       0.35654462       0.00000000
Si      -1.34744364       1.15719273       1.69218028       0.00000000
Si      -3.32338806      -0.84398816      -0.29838045       0.00000000
Si       2.70927135       1.89820854      -1.52514384       0.00000000
Si      -3.03453378      -0.45494223       1.98866220       0.00000000
Si       3.32316000      -0.35135249      -1.74568441       0.00000000
Si       0.32954670       0.19311795      -3.81532770       0.00000000
Si       3.34204011       0.65731779       1.93229301       0.00000000
