10
Lattice="16.28999089631971 0.0 0.0 0.0 16.28999089631971 0.0 0.0 0.0 34.51877397758722" Properties=species:S:1:pos:R:3:initial_magmoms:R:1 pbc="T T T"
Si      -0.95319306      -2.21440788      -0.25906354       0.00000000
Si      -1.41121899       1.31246575       1.47719724       0.00000000
Si       1.61103213      -1.10388696       1.44802886       0.00000000
Si       0.09027918       1.10747239      -2.24834708       0.00000000
Si       1.30205970      -0.59012317      -3.35757398       0.00000000
Si       3.35722239      -1.53850320      -0.09582417       0.00000000
Si       0.09659970       2.62643344       2.79060768       0.00000000
Si       0.29186793      -2.61356175       2.87962129       0.00000000
Si       3.29115015      -0.24462367      -2.10474890       0.00000000
Si      -2.62744994      -0.09026126       2.93664979       0.00000000
