10
Lattice="16.28999089631971 0.0 0.0 0.0 16.28999089631971 0.0 0.0 0.0 34.51877397758722" Properties=species:S:1:pos:R:3:initial_magmoms:R:1 pbc="T T T"
Si       1.37326329       1.32613632      -1.34830407       0.00000000
Si      -1.35801585       1.35778779       1.35665761       0.00000000
Si       1.35573525      -1.35897696       1.35803836       0.00000000
Si      -1.37243250      -1.34405532      -1.37175613       0.00000000
Si      -0.00830790      -2.75229324      -2.66209624       0.00000000
Si       2.71176372      -2.71322982       0.00072489       0.00000000
Si       0.10409310       2.63645505      -2.78584266       0.00000000
Si       2.71365336       0.00029322       2.71404012       0.00000000
Si      -0.00055386       2.71502172       2.71424723       0.00000000
Si      -0.00148239      -2.71510317       2.71435079       0.00000000
