10
Lattice="16.28999089631971 0.0 0.0 0.0 16.28999089631971 0.0 0.0 0.0 34.51877397758722" Properties=species:S:1:pos:R:3:initial_magmoms:R:1 pbc="T T T"
Si      -1.35488817      -1.35835794      -1.38541177       0.00000000
Si       1.36334268       1.35355239      -1.38299545       0.00000000
Si       1.29906234      -1.40071194       1.41468370       0.00000000
Si      -1.37813400       1.26566784       1.61168246       0.00000000
Si       0.69175485       0.10029753       3.59085199       0.00000000
Si      -2.69516421       2.68648164      -0.01511923       0.00000000
Si       2.70625770      -2.72184397      -0.02423219       0.00000000
Si      -2.71652040      -2.71367617      -0.04238908       0.00000000
Si       2.70656721       2.73049722       0.00390062       0.00000000
Si      -2.70914103      -0.00537570      -2.74334658       0.00000000
