10
Lattice="16.28999089631971 0.0 0.0 0.0 16.28999089631971 0.0 0.0 0.0 34.51877397758722" Properties=species:S:1:pos:R:3:initial_magmoms:R:1 pbc="T T T"
Si      -2.16055899       0.09817983      -0.87087464       0.00000000
Si      -0.61128225      -0.29672235       2.23881989       0.00000000
Si       0.90653850      -1.94950575      -1.03111087       0.00000000
Si       1.35148356       1.89138303      -0.58637074       0.00000000
Si      -0.80534502       0.48146724      -3.12094766       0.00000000
Si       0.30229353      -2.43172233       2.50941271       0.00000000
Si       1.26363159       1.77412761      -2.96481915       0.00000000
Si       3.47850144       1.21637430       0.40932385       0.00000000
Si      -3.12644196       2.00821491       0.23144851       0.00000000
Si       0.18308331      -3.71537433       0.46890329       0.00000000
