10
Lattice="16.28999089631971 0.0 0.0 0.0 16.28999089631971 0.0 0.0 0.0 34.51877397758722" Properties=species:S:1:pos:R:3:initial_magmoms:R:1 pbc="T T T"
Si       1.92062358       0.36579195      -1.26518281       0.00000000
Si      -0.63506565       1.73698641       1.47519515       0.00000000
Si      -0.60763329      -2.20947786       0.65040310       0.00000000
Si      -1.69047846       0.86889231      -1.53660408       0.00000000
Si       1.51589853      -0.61134741       2.48283324       0.00000000
Si      -2.21306166       2.67030567      -0.10355638       0.00000000
Si      -1.59905898      -1.76507037       2.77879738       0.00000000
Si      -3.06665766      -1.00931211      -1.84423557       0.00000000
Si      -1.77104880       0.59771268       3.22912955       0.00000000
Si       1.32892191       1.84805163      -2.99326264       0.00000000
