10
Lattice="16.28999089631971 0.0 0.0 0.0 16.28999089631971 0.0 0.0 0.0 34.51877397758722" Properties=species:S:1:pos:R:3:initial_magmoms:R:1 pbc="T T T"
Si      -0.92721051       1.98694017       0.95351263       0.00000000
Si       0.55793250       0.16625574      -2.34234175       0.00000000
Si       1.74977406      -1.03482225       1.30429260       0.00000000
Si      -1.51286859      -2.02698099       0.01905437       0.00000000
Si      -2.29728096       0.46678995       2.54240375       0.00000000
Si      -1.61564220       1.01636568      -2.98601369       0.00000000
Si      -1.34407161       2.95463133      -1.43180503       0.00000000
Si       0.72992232      -2.19652731      -2.79267393       0.00000000
Si       0.39526056      -2.26753542       2.81063203       0.00000000
Si      -3.52887012      -1.04477544       1.13987959       0.00000000
