10
Lattice="16.28999089631971 0.0 0.0 0.0 16.28999089631971 0.0 0.0 0.0 34.51877397758722" Properties=species:S:1:pos:R:3:initial_magmoms:R:1 pbc="T T T"
Si       1.48871541       1.20177846      -1.34045936       0.00000000
Si      -1.30131336       1.42105815       1.40437984       0.00000000
Si       1.41979242      -1.30626252       1.41174270       0.00000000
Si      -1.52611466      -1.17260307      -1.42144045       0.00000000
Si      -0.27291940       1.09260288      -3.05959882       0.00000000
Si       2.74609164      -2.67799455      -0.11800595       0.00000000
Si      -2.65540262       0.05623308       2.79394077       0.00000000
Si       0.06442206      -2.65939137       2.79570123       0.00000000
Si      -2.75056880      -2.70519885       0.11269696       0.00000000
Si      -2.60821049       2.87373519      -0.12901744       0.00000000
