10
Lattice="16.28999089631971 0.0 0.0 0.0 16.28999089631971 0.0 0.0 0.0 34.51877397758722" Properties=species:S:1:pos:R:3:initial_magmoms:R:1 pbc="T T T"
Si       1.35470898      -1.35685926      -1.36007497       0.00000000
Si      -1.36114353       1.35798327      -1.35959171       0.00000000
Si       1.34309421       1.37948607       1.36494212       0.00000000
Si      -1.35417141      -1.37280717       1.36970572       0.00000000
Si       2.52081234      -0.08850357       2.75000870       0.00000000
Si      -2.67434559       0.07024248       2.68718450       0.00000000
Si       2.71256193       2.71507059      -0.00055230       0.00000000
Si       2.71225242       0.00024435      -2.71749200       0.00000000
Si       2.71538010      -2.71438641      -0.00082845       0.00000000
Si      -0.00285075      -2.71441899      -2.71711229       0.00000000
