10
Lattice="16.28999089631971 0.0 0.0 0.0 16.28999089631971 0.0 0.0 0.0 34.51877397758722" Properties=species:S:1:pos:R:3:initial_magmoms:R:1 pbc="T T T"
Si      -1.22847777       1.28958156      -1.64247322       0.00000000
Si      -1.52259372      -1.24330167       1.43018264       0.00000000
Si       0.86887602       1.95623352       1.16359400       0.00000000
Si       1.46590452      -1.38978135      -1.62386759       0.00000000
Si       2.64650598       2.57388516      -0.26217023       0.00000000
Si      -2.78625789       0.55265454       2.44544939       0.00000000
Si      -2.54865195       2.73263121      -0.32499444       0.00000000
Si      -2.61879669      -2.85461073      -0.01608576       0.00000000
Si      -2.59160868      -0.05253525      -3.01266220       0.00000000
Si       2.87502210      -2.75529060      -0.25578426       0.00000000
