10
Lattice="16.28999089631971 0.0 0.0 0.0 16.28999089631971 0.0 0.0 0.0 34.51877397758722" Properties=species:S:1:pos:R:3:initial_magmoms:R:1 pbc="T T T"
Si      -1.35643083      -1.35620766       1.35755510       0.00000000
Si      -1.35741312       1.35734796      -1.35745155       0.00000000
Si       1.35755973      -1.35728280      -1.35769318       0.00000000
Si       1.35840681       1.35905841       1.35669213       0.00000000
Si      -2.71379404       0.00003258      -2.71524828       0.00000000
Si       0.00042354       2.71492398      -2.71424723       0.00000000
Si      -2.71494714       2.71427238       0.00037971       0.00000000
Si      -2.71504501      -2.71435383       0.00027615       0.00000000
Si       0.00078192      -2.71480995      -2.71466146       0.00000000
Si       2.71549413      -0.00001629      -2.71410916       0.00000000
