10
Lattice="16.28999089631971 0.0 0.0 0.0 16.28999089631971 0.0 0.0 0.0 34.51877397758722" Properties=species:S:1:pos:R:3:initial_magmoms:R:1 pbc="T T T"
Si       1.86059493       1.15724160      -0.81740502       0.00000000
Si      -0.66505554       1.06389990       1.97385364       0.00000000
Si      -1.50860061       0.28847961      -1.77726911       0.00000000
Si       0.11098377      -2.27708136       0.60045441       0.00000000
Si      -0.04588893      -0.62832159      -3.43765758       0.00000000
Si       1.73304423       0.90091845      -3.17227710       0.00000000
Si      -2.15042661      -2.93237919       0.83790919       0.00000000
Si       0.89285490      -2.32095033       2.83993016       0.00000000
Si      -0.38511189      -0.53569665       3.73262067       0.00000000
Si      -1.87142778       2.64894298      -2.19166722       0.00000000
