10
Lattice="16.28999089631971 0.0 0.0 0.0 16.28999089631971 0.0 0.0 0.0 34.51877397758722" Properties=species:S:1:pos:R:3:initial_magmoms:R:1 pbc="T T T"
Si      -1.22306949       1.79295626       0.76693855       0.00000000
Si      -0.01773981      -0.21020616      -2.32794742       0.00000000
Si       2.16018432       0.67481441       0.63911546       0.00000000
Si      -0.71860077      -1.77585435       1.85766338       0.00000000
Si      -1.15699725       0.49907673       2.77586328       0.00000000
Si       2.27268306      -0.93307491      -2.28196839       0.00000000
Si       0.48123918      -3.44755044       0.04511606       0.00000000
Si      -1.86025284      -1.71027081      -2.40830717       0.00000000
Si      -3.21215994       1.44745677      -0.48588653       0.00000000
Si       2.55262671      -2.53267146      -0.52320135       0.00000000
