10
Lattice="16.28999089631971 0.0 0.0 0.0 16.28999089631971 0.0 0.0 0.0 34.51877397758722" Properties=species:S:1:pos:R:3:initial_magmoms:R:1 pbc="T T T"
Si       0.85504581      -1.95810687       0.93832436       0.00000000
Si       2.07138753       0.91487898      -0.56831741       0.00000000
Si      -1.20972798      -0.29939391      -1.98659107       0.00000000
Si      -1.19983995       1.67169609       1.81254732       0.00000000
Si       1.43873280      -0.46560078       2.85563621       0.00000000
Si       2.61026073       1.34342001       1.77046891       0.00000000
Si      -0.48123918       3.44755044      -0.04511606       0.00000000
Si      -1.18503234      -2.97356031       1.62852763       0.00000000
Si      -3.18148587      -1.63634679       0.67194283       0.00000000
Si       3.34935432      -0.87037470      -1.46100793       0.00000000
