10
Lattice="16.28999089631971 0.0 0.0 0.0 16.28999089631971 0.0 0.0 0.0 34.51877397758722" Properties=species:S:1:pos:R:3:initial_magmoms:R:1 pbc="T T T"
Si      -1.76901255       1.64299637      -0.14207935       0.00000000
Si       1.59272217       0.76284441      -1.71347838       0.00000000
Si       0.20755089      -1.94424801       1.52321079       0.00000000
Si       1.22460075       1.09852592       1.92756393       0.00000000
Si      -0.84737322      -1.71115440      -1.71913946       0.00000000
Si       2.06391042      -2.90089455       0.46206857       0.00000000
Si       1.31922936       3.12118355      -1.60036029       0.00000000
Si      -3.77597313       0.35730160       0.19710231       0.00000000
Si       1.02257217      -3.23514906      -1.71023361       0.00000000
Si      -1.64980233       2.92664837       1.89843007       0.00000000
