10
Lattice="16.28999089631971 0.0 0.0 0.0 16.28999089631971 0.0 0.0 0.0 34.51877397758722" Properties=species:S:1:pos:R:3:initial_magmoms:R:1 pbc="T T T"
Si       1.14041403       0.92655891      -1.76128691       0.00000000
Si      -2.26051443      -0.42143859      -0.24967443       0.00000000
Si       0.61388865      -2.24956103      -0.22054057       0.00000000
Si       0.74016873       0.72153297       2.10184932       0.00000000
Si      -0.46302696      -2.68642625       1.88168846       0.00000000
Si       3.30692606       0.68248584      -0.81509227       0.00000000
Si       2.93541469       1.35969372       1.43284059       0.00000000
Si      -2.70927135      -1.89820854       1.52514384       0.00000000
Si      -3.17409021       1.71356139      -0.52026725       0.00000000
Si      -2.37972465      -1.70509059      -2.29018386       0.00000000
