10
Lattice="16.28999089631971 0.0 0.0 0.0 16.28999089631971 0.0 0.0 0.0 34.51877397758722" Properties=species:S:1:pos:R:3:initial_magmoms:R:1 pbc="T T T"
Si       1.14674174      -1.32233490       1.59856532       0.00000000
Si       1.58442634       0.65718421      -1.65521066       0.00000000
Si      -1.61712459      -1.62053964      -0.78602744       0.00000000
Si      -0.52419591       1.29104440       2.67175460       0.00000000
Si      -2.72520297       2.52678751       0.42813659       0.00000000
Si       2.43616040       2.73358906      -0.81022512       0.00000000
Si      -0.54056736      -3.07263024      -2.37675699       0.00000000
Si       2.00258739      -3.33659340       0.53807895       0.00000000
Si       0.50399063      -0.53819946       3.87973977       0.00000000
Si      -3.63724749      -0.52617744      -1.55400155       0.00000000
