10
Lattice="16.28999089631971 0.0 0.0 0.0 16.28999089631971 0.0 0.0 0.0 34.51877397758722" Properties=species:S:1:pos:R:3:initial_magmoms:R:1 pbc="T T T"
Si      -0.52302303       2.31700815       0.19109604       0.00000000
Si      -1.83371643      -0.20282679       1.53294509       0.00000000
Si       1.60375050      -0.62732790       1.71844909       0.00000000
Si      -0.14226057      -1.11073365      -2.16073838       0.00000000
Si      -1.49998320       2.05798086       2.30716710       0.00000000
Si       0.08245998      -3.41083278      -1.57226200       0.00000000
Si       0.55700397      -0.31297977       3.82091975       0.00000000
Si      -1.24201476      -1.68508647       3.26102492       0.00000000
Si       1.87746064      -2.97769797       1.62186550       0.00000000
Si      -2.26927845      -0.43572492      -3.15643298       0.00000000
