10
Lattice="16.28999089631971 0.0 0.0 0.0 16.28999089631971 0.0 0.0 0.0 34.51877397758722" Properties=species:S:1:pos:R:3:initial_magmoms:R:1 pbc="T T T"
Si      -1.46378682       0.54275022      -1.76725866       0.00000000
Si      -0.83546523      -2.24155287       0.68136646       0.00000000
Si       0.79087950       1.26825795       2.05476569       0.00000000
Si       0.31384314       1.16040186      -3.19302290       0.00000000
Si      -0.93507858       0.27233622       3.36330410       0.00000000
Si       2.25917865       1.86540048      -1.97910049       0.00000000
Si      -0.74761326      -2.12429745       3.05981487       0.00000000
Si      -2.33266284      -1.41348330      -2.93085266       0.00000000
Si       0.78226209      -3.93427935       0.02060772       0.00000000
Si       3.18723624       0.76209507       2.34489615       0.00000000
