10
Lattice="16.28999089631971 0.0 0.0 0.0 16.28999089631971 0.0 0.0 0.0 34.51877397758722" Properties=species:S:1:pos:R:3:initial_magmoms:R:1 pbc="T T T"
Si      -0.97696017      -0.25902729       2.11607106       0.00000000
Si      -2.14454592       0.48221658      -0.83048765       0.00000000
Si       1.70670330       1.52537931      -0.56396804       0.00000000
Si       0.52302303      -2.31700815      -0.19109604       0.00000000
Si      -1.31069340      -2.51983494       1.34184905       0.00000000
Si      -1.93372074      -0.35609940      -3.04403978       0.00000000
Si       0.77550174      -0.31058514       3.65502243       0.00000000
Si       2.58254234       2.34277893       1.45755605       0.00000000
Si       0.91826730       3.38660955      -1.68810707       0.00000000
Si       3.37171139       0.47630331      -1.89939660       0.00000000
