10
Lattice="16.28999089631971 0.0 0.0 0.0 16.28999089631971 0.0 0.0 0.0 34.51877397758722" Properties=species:S:1:pos:R:3:initial_magmoms:R:1 pbc="T T T"
Si       0.20377161       2.26815444      -0.77598247       0.00000000
Si       2.18613429      -1.00382238      -0.05308990       0.00000000
Si      -0.52435881       0.02720430       2.35573505       0.00000000
Si      -1.58074902      -1.44519993      -1.15054590       0.00000000
Si       1.47160602       1.12063797       2.78566662       0.00000000
Si      -0.05576067      -2.54896798      -2.62166783       0.00000000
Si      -0.71078157      -2.28379284       2.93109429       0.00000000
Si       1.76717178      -3.26475383      -1.12413902       0.00000000
Si       3.27611448      -0.20426031       2.08748950       0.00000000
Si      -1.73501532      -3.33926266       1.01019249       0.00000000
