10
Lattice="16.28999089631971 0.0 0.0 0.0 16.28999089631971 0.0 0.0 0.0 34.51877397758722" Properties=species:S:1:pos:R:3:initial_magmoms:R:1 pbc="T T T"
Si       0.78843600      -1.86123024       1.12413902       0.00000000
Si      -1.85635953       0.95664654       1.06114222       0.00000000
Si       1.89819781       1.46618145       0.11905532       0.00000000
Si      -1.04133825      -0.33425451      -2.17230218       0.00000000
Si       1.50866807       2.35719558      -2.03139647       0.00000000
Si      -2.06391042       2.90089455      -0.46206857       0.00000000
Si       1.66427504      -1.04383062       3.14566311       0.00000000
Si      -3.63529269      -0.57259350       0.79576174       0.00000000
Si       2.45344409      -2.91030624      -0.21128953       0.00000000
Si      -2.91128364       1.18974015      -2.18120803       0.00000000
