10
Lattice="16.28999089631971 0.0 0.0 0.0 16.28999089631971 0.0 0.0 0.0 34.51877397758722" Properties=species:S:1:pos:R:3:initial_magmoms:R:1 pbc="T T T"
Si       0.96596442       0.43096824       2.09107946       0.00000000
Si      -2.27571137       0.51383547       0.47194094       0.00000000
Si       0.94727979       1.40092371      -1.70968131       0.00000000
Si       0.22864644      -2.38265685      -0.38764605       0.00000000
Si      -1.91922427       2.82646161       1.09569554       0.00000000
Si      -0.13761792      -0.90487692       3.71608617       0.00000000
Si      -0.85550193       1.90030995      -3.21563271       0.00000000
Si       3.17840706       0.60294177      -2.10588802       0.00000000
Si       2.96952039      -0.58626081       2.48814914       0.00000000
Si       2.53565253      -2.94503652      -0.55644295       0.00000000
