10
Lattice="16.28999089631971 0.0 0.0 0.0 16.28999089631971 0.0 0.0 0.0 34.51877397758722" Properties=species:S:1:pos:R:3:initial_magmoms:R:1 pbc="T T T"
Si      -1.35669183      -1.35668007      -1.35755510       0.00000000
Si       1.35828789       1.35918873      -1.35700280       0.00000000
Si       1.35615390      -1.35731538       1.36135217       0.00000000
Si      -1.35671876       1.36080144       1.36038564       0.00000000
Si       2.71666212      -2.71189404      -0.00124268       0.00000000
Si       0.00084219      -2.71360449      -2.71538635       0.00000000
Si      -2.71390978       0.00177561      -2.71538635       0.00000000
Si      -2.71456138       2.71642266      -0.00031067       0.00000000
Si       0.00107514       2.71616202      -2.71538635       0.00000000
Si       2.71589649       0.00187335      -2.71566250       0.00000000
