10
Lattice="16.28999089631971 0.0 0.0 0.0 16.28999089631971 0.0 0.0 0.0 34.51877397758722" Properties=species:S:1:pos:R:3:initial_magmoms:R:1 pbc="T T T"
Si       1.26245415      -1.38357486      -1.58102977       0.00000000
Si       0.93507239       1.92694410       1.28527275       0.00000000
Si      -1.45649739       1.30000716      -1.56287288       0.00000000
Si      -0.93726993      -1.99482453       1.18251030       0.00000000
Si      -1.05071349       3.28978179       1.00822491       0.00000000
Si       2.42629646      -2.89035099      -0.21325710       0.00000000
Si       2.73966719       2.76864840      -0.08619343       0.00000000
Si      -2.76753288      -2.74439259      -0.19931151       0.00000000
Si       2.62267241      -0.04253319      -2.95391122       0.00000000
Si      -2.99604900       2.58478317      -0.20569749       0.00000000
