10
Lattice="16.28999089631971 0.0 0.0 0.0 16.28999089631971 0.0 0.0 0.0 34.51877397758722" Properties=species:S:1:pos:R:3:initial_magmoms:R:1 pbc="T T T"
Si       1.80459480       0.84170430      -1.37146618       0.00000000
Si      -1.98578588       1.36283769      -0.27704783       0.00000000
Si      -0.93507239      -1.92694410      -1.28527275       0.00000000
Si       0.16971736       1.47124764       2.21962744       0.00000000
Si      -0.24899102      -1.69455096       3.08549686       0.00000000
Si       0.35568401       2.09556189      -2.86885691       0.00000000
Si      -0.62830530       3.41312967       1.09928549       0.00000000
Si      -1.08227732       3.23775153      -1.39870150       0.00000000
Si       3.43274772      -0.48420396       1.32348505       0.00000000
Si      -2.39156978      -0.62693694      -2.84814563       0.00000000
