10
Lattice="16.28999089631971 0.0 0.0 0.0 16.28999089631971 0.0 0.0 0.0 34.51877397758722" Properties=species:S:1:pos:R:3:initial_magmoms:R:1 pbc="T T T"
Si      -1.35283400       1.35563751      -1.35938460       0.00000000
Si      -1.32974944      -1.36787130       1.37357182       0.00000000
Si       1.36251189      -1.35804843      -1.35834903       0.00000000
Si       1.36927224       1.36625859       1.36642643       0.00000000
Si      -2.70735632       2.71138096       0.00331380       0.00000000
Si      -2.71070609      -2.71479366       0.00227824       0.00000000
Si      -2.71010196      -0.00195480      -2.71576606       0.00000000
Si       0.00527796       2.71278110      -2.71593865       0.00000000
Si       2.71731861       2.71151937      -0.00431485       0.00000000
Si       2.71565703      -2.71422351       0.00207113       0.00000000
