10
Lattice="16.28999089631971 0.0 0.0 0.0 16.28999089631971 0.0 0.0 0.0 34.51877397758722" Properties=species:S:1:pos:R:3:initial_magmoms:R:1 pbc="T T T"
Si       1.93134729       1.07886945      -0.72517081       0.00000000
Si       0.38952974      -0.89101413       2.15045178       0.00000000
Si      -1.97985632       1.30654338      -0.14415048       0.00000000
Si      -1.22927828      -1.34319195      -1.68310184       0.00000000
Si      -2.27788187       0.79718114      -2.47537718       0.00000000
Si      -1.50866807      -2.35719558       2.03139647       0.00000000
Si       3.13389138      -0.83339640      -1.70377860       0.00000000
Si      -2.55000632      -2.69145009      -0.14090571       0.00000000
Si      -0.09773348       0.87093086       3.64981009       0.00000000
Si       2.95558104       2.13433928       1.19573100       0.00000000
