10
Lattice="16.28999089631971 0.0 0.0 0.0 16.28999089631971 0.0 0.0 0.0 34.31052061344573" Properties=species:S:1:pos:R:3:initial_magmoms:R:1 pbc="T T T"
Si      -0.76312134      -0.16503399       2.14128648       0.00000000
Si       1.96412765       1.23862548      -0.10869579       0.00000000
Si       0.68453186      -2.23368480      -0.13418852       0.00000000
Si      -1.56201293       1.49165968      -0.97839935       0.00000000
Si      -1.01577061       3.21148295       0.58636712       0.00000000
Si      -1.58061611       2.00691238       2.54035237       0.00000000
Si       2.89627403       0.51958618      -2.13332643       0.00000000
Si       1.25077226       3.49168724       0.08052684       0.00000000
Si      -0.69448668       1.89901882      -3.12774881       0.00000000
Si      -2.29077866      -1.93748373       2.25121745       0.00000000
