10
Lattice="16.28999089631971 0.0 0.0 0.0 16.28999089631971 0.0 0.0 0.0 34.31052061344573" Properties=species:S:1:pos:R:3:initial_magmoms:R:1 pbc="T T T"
Si      -1.35780408       1.35161388       1.36308912       0.00000000
Si       1.36089918      -1.36223496       1.36037859       0.00000000
Si       1.36221867       1.35715248      -1.38636883       0.00000000
Si      -1.34987085      -1.38616497      -1.37302546       0.00000000
Si       2.55337605      -0.21317094      -2.71880148       0.00000000
Si      -2.71241532       2.70966231       0.00401433       0.00000000
Si       2.72145627       2.70493821       0.00126949       0.00000000
Si       0.00167787       2.71010214       2.71883579       0.00000000
Si      -2.70976005      -2.72115328       0.00236743       0.00000000
Si      -2.71329498      -0.00407250       2.71904166       0.00000000
