10
Lattice="16.28999089631971 0.0 0.0 0.0 16.28999089631971 0.0 0.0 0.0 34.31052061344573" Properties=species:S:1:pos:R:3:initial_magmoms:R:1 pbc="T T T"
Si      -1.26592473       1.44611869       1.29264959       0.00000000
Si       1.34385495       1.35225571      -1.36360378       0.00000000
Si      -1.36880977      -1.36347717      -1.35811410       0.00000000
Si       1.41153990      -1.39277938       1.33924330       0.00000000
Si      -2.18353996      -0.21678569       2.60742947       0.00000000
Si       2.69090763       2.70777919       0.02446341       0.00000000
Si       2.70125178      -0.00202485      -2.71790941       0.00000000
Si      -0.01479458       2.70992947      -2.71646837       0.00000000
Si      -0.01217189      -2.71715638      -2.71859562       0.00000000
Si       2.71584762      -2.73017209      -0.01413594       0.00000000
