10
Lattice="16.28999089631971 0.0 0.0 0.0 16.28999089631971 0.0 0.0 0.0 34.31052061344573" Properties=species:S:1:pos:R:3:initial_magmoms:R:1 pbc="T T T"
Si       1.12472676       0.75706146       1.93065407       0.00000000
Si      -2.14395948      -0.78838713       0.59467028       0.00000000
Si       0.49019868       1.83373272      -1.57976018       0.00000000
Si       1.46064285      -2.04906534      -0.04155006       0.00000000
Si      -2.46138642      -1.19788515      -1.68557389       0.00000000
Si       1.86572628       0.49855545      -2.99596202       0.00000000
Si       3.11577201      -0.99196326      -1.56538407       0.00000000
Si       1.02152961       3.08021094       2.05180459       0.00000000
Si      -0.85613724      -2.23947589      -3.00169188       0.00000000
Si       1.26260532       3.64065210      -0.23907584       0.00000000
