10
Lattice="16.28999089631971 0.0 0.0 0.0 16.28999089631971 0.0 0.0 0.0 34.31052061344573" Properties=species:S:1:pos:R:3:initial_magmoms:R:1 pbc="T T T"
Si      -1.25793009       1.86401583      -0.59237147       0.00000000
Si       0.49331007      -0.28124848      -2.26185371       0.00000000
Si      -1.43404128      -1.75817025       0.58259297       0.00000000
Si       2.04437871       0.58767804       1.03847711       0.00000000
Si      -1.08603801       1.37070576      -2.93396288       0.00000000
Si       2.59543683      -1.21856856      -2.27310757       0.00000000
Si       2.90258478      -1.44632394       1.69459756       0.00000000
Si      -2.36618766      -1.03913095       2.60722361       0.00000000
Si       0.07628607       3.78222849      -0.67025639       0.00000000
Si      -3.27560949      -1.86921555      -0.96903258       0.00000000
