10
Lattice="16.28999089631971 0.0 0.0 0.0 16.28999089631971 0.0 0.0 0.0 34.31052061344573" Properties=species:S:1:pos:R:3:initial_magmoms:R:1 pbc="T T T"
Si      -0.42536448       1.40377446       1.76352743       0.00000000
Si       2.23767585       0.45879156      -0.44116492       0.00000000
Si      -0.43702812      -1.82617416       1.39403723       0.00000000
Si      -1.47100329       1.22489397      -1.40096796       0.00000000
Si      -2.04441129      -0.67978170      -2.65254783       0.00000000
Si      -1.87157439      -2.96763075      -0.04120696       0.00000000
Si      -0.74686392      -2.73631275      -2.10738766       0.00000000
Si      -2.82287781       1.35677781       1.76191484       0.00000000
Si      -0.02199150       2.90737404      -2.16568127       0.00000000
Si       3.07828872      -1.43881425      -1.52952955       0.00000000
