10
Lattice="16.28999089631971 0.0 0.0 0.0 16.28999089631971 0.0 0.0 0.0 34.31052061344573" Properties=species:S:1:pos:R:3:initial_magmoms:R:1 pbc="T T T"
Si      -2.23767585      -0.45879156       0.44116492       0.00000000
Si       0.84061287      -1.89760581      -1.08836463       0.00000000
Si       0.02951748       1.86823494      -1.44903703       0.00000000
Si       1.29539709       0.86683977       1.79965643       0.00000000
Si      -2.66304033       0.94498290       2.20469236       0.00000000
Si       1.62370575       1.12438467      -3.06135791       0.00000000
Si       0.51984648       3.09220038       1.91253811       0.00000000
Si       1.23342993       3.52347813      -0.27815555       0.00000000
Si       2.74585869      -2.55215430       0.10523043       0.00000000
Si      -2.25966735       2.44858248      -1.72451635       0.00000000
