10
Lattice="16.28999089631971 0.0 0.0 0.0 16.28999089631971 0.0 0.0 0.0 34.31052061344573" Properties=species:S:1:pos:R:3:initial_magmoms:R:1 pbc="T T T"
Si       0.45965493       0.93050109      -2.08069406       0.00000000
Si       1.15707870      -1.99125702       0.43800835       0.00000000
Si       0.82797183       1.26415287       1.80538629       0.00000000
Si      -2.34812205       0.19021833       0.21855814       0.00000000
Si      -0.38002941      -3.00433212       1.92729164       0.00000000
Si       3.13356069       0.82256355       1.61376193       0.00000000
Si      -0.31589568       3.15586170      -1.96781239       0.00000000
Si      -0.22301010       3.32832393       1.70746401       0.00000000
Si      -0.36057915       0.57300075       3.73243776       0.00000000
Si       2.97445626      -1.51360164       1.89857372       0.00000000
