10
Lattice="16.28999089631971 0.0 0.0 0.0 16.28999089631971 0.0 0.0 0.0 34.31052061344573" Properties=species:S:1:pos:R:3:initial_magmoms:R:1 pbc="T T T"
Si      -1.35747828      -1.35692442      -1.35746220       0.00000000
Si       1.35734796       1.35749457      -1.35770237       0.00000000
Si       1.35588186      -1.35772263       1.36017273       0.00000000
Si      -1.35892809       1.35728280       1.36312344       0.00000000
Si       2.71521720       2.71384884       0.00072052       0.00000000
Si       2.71482624       0.00120546      -2.71447836       0.00000000
Si      -0.00074934      -2.71476108      -2.71478715       0.00000000
Si      -2.71502172       0.00055386      -2.71509595       0.00000000
Si      -0.00066789       2.71538010      -2.71492439       0.00000000
Si       2.71498914      -2.71596654       0.00006862       0.00000000
