10
Lattice="16.28999089631971 0.0 0.0 0.0 16.28999089631971 0.0 0.0 0.0 34.31052061344573" Properties=species:S:1:pos:R:3:initial_magmoms:R:1 pbc="T T T"
Si       1.52225163      -1.19107593       1.28053797       0.00000000
Si      -0.33262551       2.22505110       0.67897127       0.00000000
Si      -2.04595884      -1.08405063       0.55981077       0.00000000
Si       0.65590056       0.17555733      -2.29263027       0.00000000
Si      -3.08717166      -0.22113675      -1.38686633       0.00000000
Si      -0.37615239       2.19727665      -2.78423168       0.00000000
Si      -0.26850807      -1.72869480      -3.13244935       0.00000000
Si       1.00825326       2.22682671       2.63333393       0.00000000
Si       1.38391695      -0.07776846       3.37090760       0.00000000
Si       3.61856286      -0.69343272       0.33469932       0.00000000
