10
Lattice="16.28999089631971 0.0 0.0 0.0 16.28999089631971 0.0 0.0 0.0 34.31052061344573" Properties=species:S:1:pos:R:3:initial_magmoms:R:1 pbc="T T T"
Si      -1.35200484       1.35527913       1.35533494       0.00000000
Si      -1.35547461      -1.35698958      -1.35653581       0.00000000
Si       1.35855342       1.35739332      -1.35598684       0.00000000
Si       1.35669636      -1.35426915       1.36181963       0.00000000
Si      -2.69806383      -0.01267362       2.70487140       0.00000000
Si      -2.71277370      -0.00081450      -2.71362059       0.00000000
Si      -2.71410948      -2.71358820       0.00078914       0.00000000
Si       0.00405621       2.69822577       2.72950637       0.00000000
Si       0.00213399       2.71439197      -2.71372352       0.00000000
Si      -2.71265967       2.71547362       0.00109794       0.00000000
