10
Lattice="16.28999089631971 0.0 0.0 0.0 16.28999089631971 0.0 0.0 0.0 34.31052061344573" Properties=species:S:1:pos:R:3:initial_magmoms:R:1 pbc="T T T"
Si      -1.23694271      -1.19534391      -1.57507134       0.00000000
Si      -1.38728802       1.30620713       1.37041442       0.00000000
Si       1.35595516      -1.42507298       1.34237242       0.00000000
Si       0.88830184       1.87862144      -1.45028391       0.00000000
Si      -2.56127574      -2.58031712       0.00927414       0.00000000
Si       2.65200385       2.65137017       0.03232053       0.00000000
Si      -2.73535068       2.59958426      -0.09010291       0.00000000
Si      -0.00485442       0.18178011      -3.80288900       0.00000000
Si      -0.01978258       2.66700857       2.73160275       0.00000000
Si       2.69961953      -0.05186410       2.73040188       0.00000000
