10
Lattice="16.28999089631971 0.0 0.0 0.0 16.28999089631971 0.0 0.0 0.0 34.31052061344573" Properties=species:S:1:pos:R:3:initial_magmoms:R:1 pbc="T T T"
Si       1.45378476      -1.23434869      -1.43356297       0.00000000
Si      -1.25004573       1.49051871      -1.43057796       0.00000000
Si       1.60599852       1.20910896       1.38792996       0.00000000
Si      -1.65512916      -1.05710208       1.52383400       0.00000000
Si      -3.11577201       0.99196326       1.56538407       0.00000000
Si       0.37092330       1.31799132       3.42082944       0.00000000
Si       0.10269216      -2.58976629      -2.80248489       0.00000000
Si      -2.76998418      -2.64732767       0.10248558       0.00000000
Si      -2.61897588       0.13155804      -2.80444059       0.00000000
Si      -2.62557333       2.82569598      -0.01437612       0.00000000
