10
Lattice="16.28999089631971 0.0 0.0 0.0 16.28999089631971 0.0 0.0 0.0 34.31052061344573" Properties=species:S:1:pos:R:3:initial_magmoms:R:1 pbc="T T T"
Si       1.01633310       2.07404280      -0.24037964       0.00000000
Si      -0.88733259      -0.54939654      -2.11239700       0.00000000
Si      -1.43816265       0.74759697       1.72623188       0.00000000
Si       1.41266880      -1.61440416       1.14017355       0.00000000
Si      -1.04643702      -2.88556173      -1.82758521       0.00000000
Si       1.34312679       2.66119956       2.01893509       0.00000000
Si       0.37652706       0.91590525       3.47081989       0.00000000
Si       3.26489067       1.61875359      -0.70926748       0.00000000
Si      -3.19292145      -0.10780722      -1.92077264       0.00000000
Si      -3.28193001      -0.59627916       2.09019808       0.00000000
