10
Lattice="16.28999089631971 0.0 0.0 0.0 16.28999089631971 0.0 0.0 0.0 34.31052061344573" Properties=species:S:1:pos:R:3:initial_magmoms:R:1 pbc="T T T"
Si       1.84376736       1.34387613      -0.36396621       0.00000000
Si      -1.09954242      -0.20268018      -2.08391926       0.00000000
Si       0.28132830      -2.34582516       0.11542066       0.00000000
Si      -0.95542479       0.27854271       2.20448649       0.00000000
Si      -1.39913181      -2.55609648      -1.88591313       0.00000000
Si       1.00247031       3.56373072      -0.50038491       0.00000000
Si      -2.95186203       1.23100272      -2.01454334       0.00000000
Si      -1.80584424      -1.92906180       2.74604405       0.00000000
Si       3.28193001       0.59627916      -2.09019808       0.00000000
Si       1.85026707      -3.09804849      -1.60195910       0.00000000
