10
Lattice="16.28999089631971 0.0 0.0 0.0 16.28999089631971 0.0 0.0 0.0 34.31052061344573" Properties=species:S:1:pos:R:3:initial_magmoms:R:1 pbc="T T T"
Si       1.35806472       1.35633798      -1.35485460       0.00000000
Si      -1.35747828       1.35628911       1.35677599       0.00000000
Si       1.35772263      -1.35801585       1.35705047       0.00000000
Si      -1.35804843      -1.35811359      -1.36020704       0.00000000
Si       2.70457983       0.00835677      -2.70806228       0.00000000
Si       2.71427238      -0.00114030       2.71341473       0.00000000
Si       0.00039096       2.71264338       2.71519888       0.00000000
Si       2.71394658       2.71427238       0.00020586       0.00000000
Si       0.00148239       2.71134018      -2.71694871       0.00000000
Si      -2.71482624      -0.00120546       2.71447836       0.00000000
