10
Lattice="16.28999089631971 0.0 0.0 0.0 16.28999089631971 0.0 0.0 0.0 34.31052061344573" Properties=species:S:1:pos:R:3:initial_magmoms:R:1 pbc="T T T"
Si       1.36355445       1.33576371      -1.36634863       0.00000000
Si       1.22826600      -1.50695532       1.34109607       0.00000000
Si      -1.35573525      -1.37606517      -1.36274602       0.00000000
Si      -1.32633180       1.41289686       1.39297360       0.00000000
Si      -2.08122669      -0.39557007       2.62170266       0.00000000
Si      -0.59080572      -2.29948011       2.76814004       0.00000000
Si       2.70241326       2.70011637       0.01036178       0.00000000
Si       0.00360009       2.69550630      -2.72219823       0.00000000
Si      -2.71161711      -0.01834254      -2.72291875       0.00000000
Si       2.71748151      -0.01827738      -2.72398237       0.00000000
