10
Lattice="16.28999089631971 0.0 0.0 0.0 16.28999089631971 0.0 0.0 0.0 34.31052061344573" Properties=species:S:1:pos:R:3:initial_magmoms:R:1 pbc="T T T"
Si       2.17992780       0.24931845       0.86675286       0.00000000
Si      -0.77457321      -1.89327267       1.18484587       0.00000000
Si       1.02771981      -0.34083567      -2.13710059       0.00000000
Si      -2.36810988       1.14919434      -0.28508628       0.00000000
Si      -1.05077016      -0.78205032       3.25356556       0.00000000
Si      -0.87449607      -1.21588560      -3.27758293       0.00000000
Si       2.70153360       2.59623504       0.15889211       0.00000000
Si       0.21923082       1.22424237       3.59461232       0.00000000
Si      -2.69356779      -2.00841039      -1.85053896       0.00000000
Si      -1.54701243       3.38094063      -0.97411054       0.00000000
