10
Lattice="16.28999089631971 0.0 0.0 0.0 16.28999089631971 0.0 0.0 0.0 34.31052061344573" Properties=species:S:1:pos:R:3:initial_magmoms:R:1 pbc="T T T"
Si       2.26204569      -0.40674501      -0.47393149       0.00000000
Si      -0.30949371       2.07099657      -1.11986171       0.00000000
Si      -0.21294288       0.72961281       2.25011951       0.00000000
Si      -1.27000098      -2.00629269      -0.34104677       0.00000000
Si       1.96069698      -0.97492392      -2.72785947       0.00000000
Si       2.07702387       0.93879270       2.72576652       0.00000000
Si       0.32537646       3.59368803       0.57686311       0.00000000
Si       3.15278289      -0.90974763       1.66128203       0.00000000
Si      -2.63647134       2.34874107      -1.18090016       0.00000000
Si      -0.21923082      -1.22424237      -3.59461232       0.00000000
