10
Lattice="16.28999089631971 0.0 0.0 0.0 16.28999089631971 0.0 0.0 0.0 34.31052061344573" Properties=species:S:1:pos:R:3:initial_magmoms:R:1 pbc="T T T"
Si       0.71633646       0.90448596      -2.15799571       0.00000000
Si      -0.82109745      -2.23174629       0.68902426       0.00000000
Si       2.14575138       0.47775312       1.19740353       0.00000000
Si      -1.22855922       1.63297476       1.51583965       0.00000000
Si      -1.88208144      -1.67697405      -2.25159486       0.00000000
Si       2.40427368       2.16384957      -1.09447191       0.00000000
Si      -0.87022809       0.19204281       3.38782270       0.00000000
Si      -2.37760695      -1.29797091       2.29163526       0.00000000
Si       1.45674954      -0.08570169       3.44886115       0.00000000
Si       2.09632752       3.03889950       1.06232293       0.00000000
