10
Lattice="16.28999089631971 0.0 0.0 0.0 16.28999089631971 0.0 0.0 0.0 34.31052061344573" Properties=species:S:1:pos:R:3:initial_magmoms:R:1 pbc="T T T"
Si      -2.32697763       0.27774450      -0.06103845       0.00000000
Si       0.63487017       1.52269146       1.69672481       0.00000000
Si       0.30949371      -2.07099657       1.11986171       0.00000000
Si       0.68900184       0.56345481      -2.25145762       0.00000000
Si      -0.92256786       0.82650573       3.31233951       0.00000000
Si       0.09655083      -1.34138376       3.36998122       0.00000000
Si       2.57153940      -2.47774158       0.64593022       0.00000000
Si       2.79179649      -0.69900390      -2.31585850       0.00000000
Si      -2.90465361       1.05401187       2.05475530       0.00000000
Si      -2.68530876       1.71867645      -1.93302150       0.00000000
