10
Lattice="16.28999089631971 0.0 0.0 0.0 16.28999089631971 0.0 0.0 0.0 34.31052061344573" Properties=species:S:1:pos:R:3:initial_magmoms:R:1 pbc="T T T"
Si       2.24883450      -0.49339152       0.26957791       0.00000000
Si       0.58888350       1.42574967      -1.89092247       0.00000000
Si      -0.67945590      -2.22610995      -0.75345945       0.00000000
Si      -0.99971730       1.17309177       1.95415679       0.00000000
Si       2.70363501      -1.57612266      -1.85115655       0.00000000
Si       3.12846192       1.81995138       0.74151939       0.00000000
Si      -1.26990324       1.19555568      -3.28540574       0.00000000
Si      -2.92560255      -1.75340673      -1.50633563       0.00000000
Si       2.36723022      -1.96617042       2.10638515       0.00000000
Si       2.51074512       0.44409798      -2.96058786       0.00000000
