10
Lattice="16.28999089631971 0.0 0.0 0.0 16.28999089631971 0.0 0.0 0.0 34.31052061344573" Properties=species:S:1:pos:R:3:initial_magmoms:R:1 pbc="T T T"
Si       1.90048914      -0.74684763       1.18090016       0.00000000
Si       0.33777315       1.59189138      -1.71367422       0.00000000
Si      -1.11865059       1.78642656       1.26142700       0.00000000
Si      -0.87962742      -2.31334290      -0.47194147       0.00000000
Si       0.43285788      -2.16756369       2.62946511       0.00000000
Si      -1.97236062       1.90445985      -2.35806047       0.00000000
Si      -2.42820369       0.46351566       2.67708471       0.00000000
Si      -2.53957842      -0.39420171      -2.63244185       0.00000000
Si       1.04107761       0.27526842      -3.53175541       0.00000000
Si      -3.12846192      -1.81995138      -0.74151939       0.00000000
