10
Lattice="16.28999089631971 0.0 0.0 0.0 16.28999089631971 0.0 0.0 0.0 34.31052061344573" Properties=species:S:1:pos:R:3:initial_magmoms:R:1 pbc="T T T"
Si       0.83185767       0.00348606       2.15727519       0.00000000
Si      -1.61637525      -1.65907134      -0.41563788       0.00000000
Si       1.76647850      -0.33793605      -1.52009415       0.00000000
Si      -0.59596965       3.19112955       0.89214266       0.00000000
Si       0.52655749      -1.58506587      -3.05298614       0.00000000
Si      -1.39916439       2.81062773      -1.55354693       0.00000000
Si       3.18232385       0.00627165       1.56833477       0.00000000
Si      -0.10107945       1.94211009       3.13344436       0.00000000
Si      -0.39105774      -3.24797025      -1.73820626       0.00000000
Si      -2.29257315       0.99968472      -2.86393507       0.00000000
