10
Lattice="16.28999089631971 0.0 0.0 0.0 16.28999089631971 0.0 0.0 0.0 34.31052061344573" Properties=species:S:1:pos:R:3:initial_magmoms:R:1 pbc="T T T"
Si      -0.94446162       1.75431897       1.19810346       0.00000000
Si       1.79473446      -1.00242144       1.16579666       0.00000000
Si       1.79283876       0.93467133      -1.30103234       0.00000000
Si      -1.96431336      -1.78017120      -0.17428382       0.00000000
Si      -2.18455416      -0.41660046      -2.10155285       0.00000000
Si      -2.30599611       0.39227949       2.54558472       0.00000000
Si       0.43012116      -2.34303957       2.53975193       0.00000000
Si      -2.15989110       3.16433250      -0.20297086       0.00000000
Si      -0.93532293      -3.67367193       1.14194740       0.00000000
Si      -3.35398068       1.54577439      -1.46757021       0.00000000
