10
Lattice="16.28999089631971 0.0 0.0 0.0 16.28999089631971 0.0 0.0 0.0 34.31052061344573" Properties=species:S:1:pos:R:3:initial_magmoms:R:1 pbc="T T T"
Si       0.94446162      -1.75431897      -1.19810346       0.00000000
Si      -1.21542948       1.41001353      -1.40107432       0.00000000
Si       1.36687761       1.34141634       1.33808017       0.00000000
Si      -1.36153449      -1.36203948       1.34748126       0.00000000
Si      -2.40951906      -0.20854458      -2.66567367       0.00000000
Si       2.73730038      -0.81964764      -2.49913580       0.00000000
Si      -2.69733078       2.68916949      -0.02123479       0.00000000
Si       0.00527796       2.70019782       2.69715496       0.00000000
Si      -2.70804960      -0.01405827       2.70068895       0.00000000
Si       2.72112539      -0.01332522       2.69629720       0.00000000
