10
Lattice="16.28999089631971 0.0 0.0 0.0 16.28999089631971 0.0 0.0 0.0 34.31052061344573" Properties=species:S:1:pos:R:3:initial_magmoms:R:1 pbc="T T T"
Si      -1.90221588      -0.87504993      -1.14048234       0.00000000
Si      -1.02771981       0.34083567       2.13710059       0.00000000
Si       0.95413788       1.93065822      -1.15002067       0.00000000
Si       1.84034646      -1.68661773       0.30553536       0.00000000
Si       1.15220799       0.59015412       3.00385345       0.00000000
Si      -0.41723577      -2.12788125      -2.47749546       0.00000000
Si       2.30881428       0.60377256      -2.50003748       0.00000000
Si       0.94693770      -3.49756074      -1.00485278       0.00000000
Si       3.57966234      -0.77274873      -1.06616571       0.00000000
Si       2.70813105       2.80644120       0.15058896       0.00000000
