10
Lattice="16.28999089631971 0.0 0.0 0.0 16.28999089631971 0.0 0.0 0.0 34.31052061344573" Properties=species:S:1:pos:R:3:initial_magmoms:R:1 pbc="T T T"
Si       0.37178667       1.75554072       1.46948611       0.00000000
Si       2.19440702      -0.77165730      -0.45506069       0.00000000
Si      -1.32212898      -1.78479756       0.82770746       0.00000000
Si      -1.10187189      -0.00605988      -2.13408126       0.00000000
Si      -1.62347769      -2.35297647      -1.42622052       0.00000000
Si      -1.30774491       1.69684785       3.04413402       0.00000000
Si       2.01579695       1.06078851       2.96690100       0.00000000
Si      -0.43139178      -2.28780018       2.96292097       0.00000000
Si       1.12993697       3.63879504       0.33504242       0.00000000
Si       2.97663002      -2.10670425       1.29992342       0.00000000
