10
Lattice="16.28999089631971 0.0 0.0 0.0 16.28999089631971 0.0 0.0 0.0 34.31052061344573" Properties=species:S:1:pos:R:3:initial_magmoms:R:1 pbc="T T T"
Si       1.64558322      -0.88404201       1.40024744       0.00000000
Si      -0.03228678      -0.30411801      -2.35147284       0.00000000
Si       0.24452919       2.30097879       0.58966094       0.00000000
Si      -2.01447027      -1.10661228       0.74316629       0.00000000
Si      -2.06122257       2.70466128       0.58801403       0.00000000
Si       0.86312565       3.17008287      -1.53306354       0.00000000
Si      -3.18010122       0.87045615       1.55515953       0.00000000
Si      -1.01392218      -2.77804773       2.19597748       0.00000000
Si      -2.32225353      -0.51329790      -2.82711986       0.00000000
Si       0.16711911       1.83198969      -3.33474429       0.00000000
