10
Lattice="16.28999089631971 0.0 0.0 0.0 16.28999089631971 0.0 0.0 0.0 34.31052061344573" Properties=species:S:1:pos:R:3:initial_magmoms:R:1 pbc="T T T"
Si       1.40660892      -1.13536413       1.47657124       0.00000000
Si       1.72211364       0.83105064      -1.36616476       0.00000000
Si      -0.70814259      -1.83327660      -1.45348508       0.00000000
Si      -1.32168915       1.57208274       1.44855668       0.00000000
Si       0.09907578       0.74575620      -3.24538734       0.00000000
Si      -2.53983743      -2.61086346      -0.12760433       0.00000000
Si       2.83354776      -2.34564597       0.00767527       0.00000000
Si       0.04012227      -2.48617980       2.83346045       0.00000000
Si      -2.67017535       0.22988448       2.82903439       0.00000000
Si       2.65254957       2.85650037       0.00071023       0.00000000
