10
Lattice="16.28999089631971 0.0 0.0 0.0 16.28999089631971 0.0 0.0 0.0 34.31052061344573" Properties=species:S:1:pos:R:3:initial_magmoms:R:1 pbc="T T T"
Si       1.35571347       1.35816246       1.35639857       0.00000000
Si      -1.35795848       1.35783666      -1.35735926       0.00000000
Si      -1.35815396      -1.35786924       1.35790823       0.00000000
Si       1.35794683      -1.35943308      -1.35701616       0.00000000
Si       0.00339682       2.71233387       2.71303731       0.00000000
Si      -0.00069134      -2.71448415      -2.71197369       0.00000000
Si       2.71482564      -0.00208512      -2.71389508       0.00000000
Si      -2.71488290       2.71409319       0.00027448       0.00000000
Si       2.71492338       2.71480995       0.00010293       0.00000000
Si       2.71458129      -2.71521720      -0.00024017       0.00000000
