10
Lattice="16.28999089631971 0.0 0.0 0.0 16.28999089631971 0.0 0.0 0.0 34.31052061344573" Properties=species:S:1:pos:R:3:initial_magmoms:R:1 pbc="T T T"
Si      -1.35231665       1.35417141       1.35663874       0.00000000
Si      -1.35571347      -1.35816246      -1.35639857       0.00000000
Si       1.35920991       1.35664749      -1.35629564       0.00000000
Si       1.35710850      -1.35399222       1.36332930       0.00000000
Si      -2.70687902      -0.01107720       2.70572917       0.00000000
Si      -2.71254794       2.71221984       0.00120087       0.00000000
Si       0.00927390       2.70690930       2.71880148       0.00000000
Si      -2.71367195      -0.00032580      -2.71375783       0.00000000
Si       0.00223336       2.71422351      -2.71338042       0.00000000
Si      -2.71386743      -2.71603170       0.00150966       0.00000000
