10
Lattice="16.28999089631971 0.0 0.0 0.0 16.28999089631971 0.0 0.0 0.0 34.31052061344573" Properties=species:S:1:pos:R:3:initial_magmoms:R:1 pbc="T T T"
Si      -1.35692605      -1.35718343       1.35807979       0.00000000
Si       1.35819504       1.35817875       1.35787392       0.00000000
Si      -1.35767213       1.35997065      -1.35759944       0.00000000
Si       1.36172997      -1.35890203      -1.35880031       0.00000000
Si       2.71368594       2.71386513       0.00192139       0.00000000
Si      -2.71404532       0.00061902       2.71458129       0.00000000
Si       0.00058644       2.71502172       2.71454698       0.00000000
Si       0.00172674      -2.71535317       2.71485577       0.00000000
Si       2.71529865      -2.71509283       0.00027448       0.00000000
Si      -2.71468619       2.71575477       0.00281346       0.00000000
