10
Lattice="16.28999089631971 0.0 0.0 0.0 16.28999089631971 0.0 0.0 0.0 34.31052061344573" Properties=species:S:1:pos:R:3:initial_magmoms:R:1 pbc="T T T"
Si       0.70625295       1.84103064       1.34524764       0.00000000
Si      -1.32911739       1.26324063      -1.54466050       0.00000000
Si      -1.90468056      -0.99474885       1.16100005       0.00000000
Si       1.38522015      -1.44324513      -1.50407113       0.00000000
Si       2.56608225       2.64603357       0.01770424       0.00000000
Si      -2.71162430       2.57831604      -0.16698940       0.00000000
Si      -3.64595354       0.74792277       1.09289362       0.00000000
Si      -0.94161087       3.61791126       1.05165236       0.00000000
Si       0.02018331       2.62884762      -2.90675462       0.00000000
Si      -2.69070794      -0.08949726      -2.90682324       0.00000000
