10
Lattice="16.28999089631971 0.0 0.0 0.0 16.28999089631971 0.0 0.0 0.0 34.31052061344573" Properties=species:S:1:pos:R:3:initial_magmoms:R:1 pbc="T T T"
Si       1.15456678      -0.75787596      -1.87181150       0.00000000
Si       0.93321826      -1.03760784       1.87133115       0.00000000
Si       0.19373371       2.40961680      -0.20483392       0.00000000
Si      -2.25345501      -0.93897189      -0.20881395       0.00000000
Si      -3.32921403       0.90956844       0.85567055       0.00000000
Si       0.56239433      -3.06957357      -1.86735113       0.00000000
Si       0.37234379       0.57717099      -3.62679561       0.00000000
Si       0.45764311       0.25171308       3.69802429       0.00000000
Si      -1.45027656       3.10436901      -1.70224881       0.00000000
Si      -1.82206323       1.34882829      -3.17173492       0.00000000
