10
Lattice="16.28999089631971 0.0 0.0 0.0 16.28999089631971 0.0 0.0 0.0 34.31052061344573" Properties=species:S:1:pos:R:3:initial_magmoms:R:1 pbc="T T T"
Si       1.79268192      -1.59490503       0.36605915       0.00000000
Si      -2.39071130      -0.58826448       0.51630500       0.00000000
Si       0.38739249       1.47636270       2.10193229       0.00000000
Si      -1.24235848      -0.93097350      -2.15116791       0.00000000
Si      -1.29154613       2.90861208       1.26749996       0.00000000
Si      -3.28198607       1.57814262       0.40983940       0.00000000
Si       3.52715967      -0.73581930      -1.17390081       0.00000000
Si      -2.32317901      -1.55968605       2.60535784       0.00000000
Si      -1.13932586       0.38015973       3.64066191       0.00000000
Si       0.66995883      -3.79946331      -0.22521438       0.00000000
