10
Lattice="16.28999089631971 0.0 0.0 0.0 16.28999089631971 0.0 0.0 0.0 34.31052061344573" Properties=species:S:1:pos:R:3:initial_magmoms:R:1 pbc="T T T"
Si       1.35744628      -1.35744570      -1.35732495       0.00000000
Si      -1.35751421       1.35767376      -1.35729064       0.00000000
Si       1.35934081       1.35788553       1.35667305       0.00000000
Si      -1.35733502      -1.35944937       1.35725633       0.00000000
Si       2.71378752       0.00084708       2.71276283       0.00000000
Si       0.00270293       2.71156474       2.71715458       0.00000000
Si       2.71447170      -0.00026064      -2.71489008       0.00000000
Si       2.71442283      -2.71502172      -0.00024017       0.00000000
Si       2.71522104       2.71456714      -0.00027448       0.00000000
Si       0.00289627      -2.71749780       2.71269421       0.00000000
