10
Lattice="16.28999089631971 0.0 0.0 0.0 16.28999089631971 0.0 0.0 0.0 34.31052061344573" Properties=species:S:1:pos:R:3:initial_magmoms:R:1 pbc="T T T"
Si       1.11603442      -1.33960815       1.50932065       0.00000000
Si       0.32328157      -1.40866146      -1.87791877       0.00000000
Si      -2.30425375       0.56549106       0.00099501       0.00000000
Si       1.37144533       2.00012276       0.16403869       0.00000000
Si       1.87511584       2.03169648      -2.13710059       0.00000000
Si      -1.97154679       2.77867068      -0.81645360       0.00000000
Si       2.14994443      -0.27315072      -2.77356110       0.00000000
Si       3.29821024      -1.14815178       0.62757408       0.00000000
Si      -3.00026029      -0.77260212      -1.80068575       0.00000000
Si      -0.37774718       3.49060069       0.72124186       0.00000000
