10
Lattice="16.28999089631971 0.0 0.0 0.0 16.28999089631971 0.0 0.0 0.0 34.31052061344573" Properties=species:S:1:pos:R:3:initial_magmoms:R:1 pbc="T T T"
Si       0.76312134       0.16503399      -2.14128648       0.00000000
Si      -1.52765732      -1.77244974       0.10993097       0.00000000
Si      -0.81749477       2.17194637       0.39906589       0.00000000
Si       1.81507415      -0.09888030       1.50273302       0.00000000
Si       1.00941148       2.15205302       1.87630618       0.00000000
Si       1.44765320      -2.06865081      -2.27547500       0.00000000
Si       0.68595561      -1.20531339       3.23383700       0.00000000
Si      -0.36593597      -3.32884521      -1.32243114       0.00000000
Si      -0.79889159       1.65669367      -3.11968583       0.00000000
Si      -1.30448432      -2.53578285       2.37617643       0.00000000
