10
Lattice="16.28999089631971 0.0 0.0 0.0 16.28999089631971 0.0 0.0 0.0 34.281931910070035" Properties=species:S:1:pos:R:3:initial_magmoms:R:1 pbc="T T T"
Si       1.35412254      -1.35752552      -1.35307433       0.00000000
Si       1.35524655       1.35764118       1.35595401       0.00000000
Si      -1.35988920      -1.35661980       1.35605686       0.00000000
Si      -1.36065483       1.35451350      -1.36301609       0.00000000
Si       2.71313208      -2.71297210      -0.00037710       0.00000000
Si       2.71345788       0.00013032       2.71266222       0.00000000
Si      -0.00200367      -2.71476204       2.71290220       0.00000000
Si       2.71345788       2.71459818      -0.00140556       0.00000000
Si      -0.00262269       2.71599912       2.71348499       0.00000000
Si      -2.71515204      -2.71449263      -0.00143984       0.00000000
