10
Lattice="16.28999089631971 0.0 0.0 0.0 16.28999089631971 0.0 0.0 0.0 34.281931910070035" Properties=species:S:1:pos:R:3:initial_magmoms:R:1 pbc="T T T"
Si      -1.35526284      -1.35787283      -1.35749670       0.00000000
Si      -1.35695700       1.35710850       1.35729101       0.00000000
Si       1.35988920       1.35661980      -1.35605686       0.00000000
Si       1.35788553      -1.35814225       1.35684534       0.00000000
Si       2.71401174      -0.00090572      -2.70913118       0.00000000
Si      -2.71379997       0.00019874       2.71478771       0.00000000
Si       0.00125433       2.71538499       2.71331358       0.00000000
Si      -2.71422351       2.71452162      -0.00034282       0.00000000
Si       0.00081450      -2.71334615       2.71543906       0.00000000
Si       2.71513575       2.71426098      -0.00010285       0.00000000
