10
Lattice="16.28999089631971 0.0 0.0 0.0 16.28999089631971 0.0 0.0 0.0 34.281931910070035" Properties=species:S:1:pos:R:3:initial_magmoms:R:1 pbc="T T T"
Si       1.83060504      -1.42801724       0.91224272       0.00000000
Si      -0.10823076       1.76554278      -1.76846873       0.00000000
Si      -1.55874123      -2.40540746      -0.31679951       0.00000000
Si      -0.97642260       0.14343345       2.96154919       0.00000000
Si       1.39230630      -0.00752598       2.85750347       0.00000000
Si       2.60242524      -0.81821412      -1.64837905       0.00000000
Si      -1.10493441       0.16855263      -3.17797115       0.00000000
Si       2.04099039       2.09932488       1.87344006       0.00000000
Si      -2.77920432      -0.93336813      -1.91382420       0.00000000
Si      -2.06547426       2.88614817      -0.02811120       0.00000000
