10
Lattice="16.28999089631971 0.0 0.0 0.0 16.28999089631971 0.0 0.0 0.0 34.281931910070035" Properties=species:S:1:pos:R:3:initial_magmoms:R:1 pbc="T T T"
Si      -1.46724844       1.25394116      -1.28437330       0.00000000
Si       1.26842085      -1.47486257      -1.31303301       0.00000000
Si       1.01162529       1.55842406       1.44440144       0.00000000
Si      -1.77310297      -0.87600959       1.45674295       0.00000000
Si      -0.03103245      -0.67634306       3.20381974       0.00000000
Si      -0.79298091       1.81950389       2.96154919       0.00000000
Si       2.71896390      -2.52053396       0.16410770       0.00000000
Si      -0.09811467       2.59813331      -2.65585703       0.00000000
Si       2.61619029      -0.11906252      -2.65777682       0.00000000
Si       2.23208838       0.08638473       3.04142613       0.00000000
