10
Lattice="16.28999089631971 0.0 0.0 0.0 16.28999089631971 0.0 0.0 0.0 34.281931910070035" Properties=species:S:1:pos:R:3:initial_magmoms:R:1 pbc="T T T"
Si      -0.85908573       2.00169891       0.92345292       0.00000000
Si       2.36872890      -0.15095943      -0.10404572       0.00000000
Si      -1.27451331      -1.39766408       1.46942727       0.00000000
Si      -2.27647863      -0.29409966      -0.84786121       0.00000000
Si       0.97642260      -0.14343345      -2.96154919       0.00000000
Si      -3.10319613       1.71150885       0.00798769       0.00000000
Si      -0.42733557       1.74441465       3.27276074       0.00000000
Si       3.01741299       1.95589143      -1.08810913       0.00000000
Si       2.80702764      -1.57145069      -2.04930647       0.00000000
Si       0.13486491      -2.26718356       3.10611618       0.00000000
