10
Lattice="16.28999089631971 0.0 0.0 0.0 16.28999089631971 0.0 0.0 0.0 34.281931910070035" Properties=species:S:1:pos:R:3:initial_magmoms:R:1 pbc="T T T"
Si       1.96773426       0.76712868      -0.98348061       0.00000000
Si      -1.67488893       1.05645537      -1.22962502       0.00000000
Si      -0.63640143       1.07049735       2.00227163       0.00000000
Si      -0.43948791      -2.27838619      -0.50942979       0.00000000
Si       1.79769924      -0.36838206      -3.08009618       0.00000000
Si      -2.08200861      -0.42336081      -2.92850139       0.00000000
Si      -0.55231245       3.33252675       1.30857635       0.00000000
Si      -1.48494753      -2.97478925       1.50103523       0.00000000
Si      -2.94739857       0.52388640       2.24306806       0.00000000
Si       3.79610757       0.32490405       0.42283358       0.00000000
