10
Lattice="16.28999089631971 0.0 0.0 0.0 16.28999089631971 0.0 0.0 0.0 34.281931910070035" Properties=species:S:1:pos:R:3:initial_magmoms:R:1 pbc="T T T"
Si      -1.36348929      -1.35257499      -1.38063702       0.00000000
Si       1.35335691       1.36192545      -1.38228255       0.00000000
Si       1.42052058      -1.29036348       1.45547451       0.00000000
Si      -1.44717102       1.36598166       1.42612916       0.00000000
Si      -0.25374933      -2.39228424       2.71962146       0.00000000
Si       2.41722423       0.30662667       2.86497693       0.00000000
Si       2.71906164      -2.70512229      -0.01391847       0.00000000
Si       2.70855459       2.71728603       0.00599934       0.00000000
Si      -2.73262306      -2.69676715      -0.00915328       0.00000000
Si      -2.70755275       2.72919402      -0.01991781       0.00000000
