10
Lattice="16.28999089631971 0.0 0.0 0.0 16.28999089631971 0.0 0.0 0.0 34.281931910070035" Properties=species:S:1:pos:R:3:initial_magmoms:R:1 pbc="T T T"
Si       0.45967122       0.04266351       2.33333244       0.00000000
Si      -2.42196462       0.17829405       0.26067996       0.00000000
Si       1.15232202       2.02486329      -0.73627346       0.00000000
Si       0.51551334      -2.03211234      -1.28070513       0.00000000
Si      -0.56003391       2.11755339       2.92918703       0.00000000
Si      -2.67134823       1.83741426       1.96504144       0.00000000
Si       2.17795671       1.44691038      -2.84636183       0.00000000
Si      -3.36098538      -1.98630486       0.73085691       0.00000000
Si      -3.46590927       1.19957931      -1.60172132       0.00000000
Si      -0.68844798      -1.58048838       3.61427754       0.00000000
