10
Lattice="16.28999089631971 0.0 0.0 0.0 16.28999089631971 0.0 0.0 0.0 34.281931910070035" Properties=species:S:1:pos:R:3:initial_magmoms:R:1 pbc="T T T"
Si       1.29420792       1.27035936       1.53294628       0.00000000
Si       1.32077691      -1.34574948      -1.53747694       0.00000000
Si      -0.87954597       1.29440340      -1.91378992       0.00000000
Si      -1.43894457      -1.36446669       1.64015622       0.00000000
Si      -3.21282783       1.11420342      -1.46634189       0.00000000
Si       2.52622062      -2.79681381       0.10133745       0.00000000
Si      -0.54763722      -2.06975853      -3.31002522       0.00000000
Si       2.49914664      -0.19298763       3.06074885       0.00000000
Si       2.57215842       3.01151601       0.08217384       0.00000000
Si      -0.22584456       2.50950708       3.05731380       0.00000000
