10
Lattice="16.28999089631971 0.0 0.0 0.0 16.28999089631971 0.0 0.0 0.0 34.281931910070035" Properties=species:S:1:pos:R:3:initial_magmoms:R:1 pbc="T T T"
Si      -1.16659206      -1.71727551       1.11616753       0.00000000
Si       1.71310527       1.07535177       1.21692219       0.00000000
Si       1.68345747      -0.85678884      -1.52396921       0.00000000
Si      -1.77233571       1.86416244      -0.12825495       0.00000000
Si      -2.01287385      -0.91092051      -2.52006558       0.00000000
Si      -1.76516811       1.47929490      -2.46559156       0.00000000
Si       0.05339862      -1.88517654      -2.88671104       0.00000000
Si      -2.37496797      -0.33117570       2.52047966       0.00000000
Si       0.33783831       2.40391530       2.50368151       0.00000000
Si       2.44920150       1.45463184      -2.11745834       0.00000000
