10
Lattice="16.28999089631971 0.0 0.0 0.0 16.28999089631971 0.0 0.0 0.0 34.281931910070035" Properties=species:S:1:pos:R:3:initial_magmoms:R:1 pbc="T T T"
Si       1.35549090       1.35637056      -1.35763383       0.00000000
Si       1.35441576      -1.35940050       1.35797665       0.00000000
Si      -1.35977517      -1.35856971      -1.35838803       0.00000000
Si      -1.36257705       1.35912357       1.36411311       0.00000000
Si       2.71295289      -0.00073305      -2.71591901       0.00000000
Si       2.70632286       0.02909394       2.72246686       0.00000000
Si       2.71376739      -2.71585251      -0.00058279       0.00000000
Si      -0.00239463       2.71466334      -2.71585045       0.00000000
Si      -2.71588509      -2.71510317      -0.00233117       0.00000000
Si      -0.00226431      -2.71612944      -2.71595329       0.00000000
