10
Lattice="16.28999089631971 0.0 0.0 0.0 16.28999089631971 0.0 0.0 0.0 34.281931910070035" Properties=species:S:1:pos:R:3:initial_magmoms:R:1 pbc="T T T"
Si       1.91679543       0.20448837      -1.28433901       0.00000000
Si      -0.06512742       0.18279009       2.34769657       0.00000000
Si      -0.05592357      -2.42808966      -0.22934625       0.00000000
Si      -1.31149161       2.09289033      -0.05279420       0.00000000
Si      -3.15390201       0.93962349       0.70936213       0.00000000
Si       1.17678960       2.28915225      -2.21481973       0.00000000
Si      -3.34678213      -0.81182844      -1.30610805       0.00000000
Si       3.62371050       0.61155918       0.33627166       0.00000000
Si      -2.35294389       0.52789374       2.86854226       0.00000000
Si       0.88321122       2.23037793       2.89586497       0.00000000
