10
Lattice="16.28999089631971 0.0 0.0 0.0 16.28999089631971 0.0 0.0 0.0 34.281931910070035" Properties=species:S:1:pos:R:3:initial_magmoms:R:1 pbc="T T T"
Si      -1.35666378      -1.35943308      -1.35605686       0.00000000
Si      -1.35734796       1.35702019       1.35804521       0.00000000
Si       1.35742941      -1.35757602       1.35742813       0.00000000
Si       1.35899325       1.35763989      -1.35705103       0.00000000
Si       2.71096551      -0.00014661      -2.71537050       0.00000000
Si       0.00047241      -2.71287144       2.71482199       0.00000000
Si       2.71445157      -2.71440270       0.00017141       0.00000000
Si      -2.71375924       0.00000000       2.71585045       0.00000000
Si       2.71425609       2.71551272       0.00044567       0.00000000
Si      -2.71558047       2.71520647      -0.00013713       0.00000000
