10
Lattice="16.28999089631971 0.0 0.0 0.0 16.28999089631971 0.0 0.0 0.0 34.281931910070035" Properties=species:S:1:pos:R:3:initial_magmoms:R:1 pbc="T T T"
Si      -1.35695700      -1.35529542       1.35739385       0.00000000
Si       1.35702216      -1.35682668      -1.35725672       0.00000000
Si      -1.35742941       1.35757602      -1.35742813       0.00000000
Si       1.35764118       1.35974259       1.35845659       0.00000000
Si      -0.00022806      -2.71238274      -2.71478771       0.00000000
Si      -2.71409319      -0.00185706      -2.71348499       0.00000000
Si      -2.71477737       2.71459621       0.00061708       0.00000000
Si       2.71471221       2.71494649      -0.00013713       0.00000000
Si       0.00156384       2.71521591      -2.71447917       0.00000000
Si       2.71490769      -2.71511946       0.00095989       0.00000000
