10
Lattice="16.28999089631971 0.0 0.0 0.0 16.28999089631971 0.0 0.0 0.0 34.281931910070035" Properties=species:S:1:pos:R:3:initial_magmoms:R:1 pbc="T T T"
Si       1.35997065       1.33354827      -1.39260142       0.00000000
Si      -1.35651717      -1.37591856      -1.38917322       0.00000000
Si       1.40162418      -1.32175431       1.51149122       0.00000000
Si      -1.25465580       1.65112182       1.42588919       0.00000000
Si      -2.70519885       2.69679321      -0.05125152       0.00000000
Si       2.71238274      -2.70594819      -0.03081947       0.00000000
Si       2.74188393       2.68126884      -0.01193012       0.00000000
Si      -2.71217097      -2.72634327      -0.01405560       0.00000000
Si       0.00428427       2.69619048      -2.75342346       0.00000000
Si      -2.71031391      -0.01884753      -2.75448620       0.00000000
