10
Lattice="16.28999089631971 0.0 0.0 0.0 16.28999089631971 0.0 0.0 0.0 34.281931910070035" Properties=species:S:1:pos:R:3:initial_magmoms:R:1 pbc="T T T"
Si       1.46887744       0.74837889      -1.62698712       0.00000000
Si       1.36292728      -1.54722420       1.07189376       0.00000000
Si      -1.96698396      -1.24445826      -0.06732975       0.00000000
Si      -0.80767612       1.82697237       1.29962877       0.00000000
Si       0.82589485      -0.63255699       3.16213288       0.00000000
Si       0.34775892       2.77641873      -2.04155875       0.00000000
Si       2.29559494      -1.25722962      -2.48283602       0.00000000
Si      -2.82880641      -0.89622693       2.14886126       0.00000000
Si       0.45413751       1.69025040       3.28870185       0.00000000
Si      -0.40751064       3.74283927       0.00274256       0.00000000
