10
Lattice="16.28999089631971 0.0 0.0 0.0 16.28999089631971 0.0 0.0 0.0 34.281931910070035" Properties=species:S:1:pos:R:3:initial_magmoms:R:1 pbc="T T T"
Si      -0.70196868      -0.59632803       2.10028373       0.00000000
Si       1.87776459      -1.09587717      -0.73606777       0.00000000
Si       0.97958286       2.18215953       0.48279272       0.00000000
Si      -1.64370987      -1.11304683      -1.50998282       0.00000000
Si       1.53888372      -0.43901550      -2.96182344       0.00000000
Si      -0.76049865       0.00407250      -3.39202765       0.00000000
Si      -0.97852401       3.45096061       0.78197130       0.00000000
Si      -0.72821187      -2.97665541       2.12640658       0.00000000
Si      -2.76307722       0.54144702       2.49898282       0.00000000
Si       3.91940658      -0.48741309       0.22057007       0.00000000
