10
Lattice="16.28999089631971 0.0 0.0 0.0 16.28999089631971 0.0 0.0 0.0 34.281931910070035" Properties=species:S:1:pos:R:3:initial_magmoms:R:1 pbc="T T T"
Si      -1.34496756      -1.35205860       1.36822695       0.00000000
Si      -1.35106002       1.35562122      -1.35996500       0.00000000
Si       1.36357074      -1.36085520      -1.35804521       0.00000000
Si       1.36102950       1.36940256       1.38547077       0.00000000
Si       0.20841426      -2.50405970       2.69377287       0.00000000
Si      -2.70927135      -0.00265527      -2.71598757       0.00000000
Si      -2.71067229       2.71498914      -0.00013713       0.00000000
Si       0.00495216       2.71285515      -2.71585045       0.00000000
Si      -2.71321353      -2.71670714      -0.00041138       0.00000000
Si       2.71767699       2.71353933       0.00195407       0.00000000
