10
Lattice="16.28999089631971 0.0 0.0 0.0 16.28999089631971 0.0 0.0 0.0 34.281931910070035" Properties=species:S:1:pos:R:3:initial_magmoms:R:1 pbc="T T T"
Si      -0.01371765      -2.22024229       0.75879670       0.00000000
Si      -1.90349385       1.09118565       0.86668200       0.00000000
Si       1.96232582       0.94610691       0.95886617       0.00000000
Si      -0.30386472      -0.57634020      -2.36377481       0.00000000
Si      -3.23252979      -0.89873559       0.74484395       0.00000000
Si       1.74120536       0.25798473      -3.07965051       0.00000000
Si      -2.13704358      -2.91844214      -0.04463510       0.00000000
Si      -1.90531833       3.09220038      -0.38999148       0.00000000
Si       0.35326478       3.60237060      -0.96527690       0.00000000
Si       1.57910357       3.27135780       1.01015197       0.00000000
