10
Lattice="16.28999089631971 0.0 0.0 0.0 16.28999089631971 0.0 0.0 0.0 34.281931910070035" Properties=species:S:1:pos:R:3:initial_magmoms:R:1 pbc="T T T"
Si      -0.65280546      -1.85458392       1.27840824       0.00000000
Si      -1.20598128       0.23286555      -1.99853490       0.00000000
Si       2.05019424      -0.66516957      -0.98008670       0.00000000
Si       0.37486548       1.95375744       1.33106531       0.00000000
Si       3.31491726      -1.18824147       0.92808098       0.00000000
Si      -1.38134313      -2.01007197      -2.73326568       0.00000000
Si       0.32301441       1.18157886      -3.51828807       0.00000000
Si      -3.03042870      -1.77785802       1.37220366       0.00000000
Si       0.36367425      -3.75781697       0.35272699       0.00000000
Si       2.52281601       0.85682142      -2.71557619       0.00000000
