10
Lattice="16.28999089631971 0.0 0.0 0.0 16.28999089631971 0.0 0.0 0.0 34.281931910070035" Properties=species:S:1:pos:R:3:initial_magmoms:R:1 pbc="T T T"
Si       2.24764533       0.46829189      -0.04439513       0.00000000
Si      -0.11701107      -2.34444444       0.38121530       0.00000000
Si      -0.43829874       1.42049126       1.94526075       0.00000000
Si      -1.83060504       1.42801724      -0.91224272       0.00000000
Si       0.77182020       0.60980312      -2.56062177       0.00000000
Si       0.21038535       3.52734212       0.96119734       0.00000000
Si       2.42300718       2.71122941       0.69033565       0.00000000
Si      -2.45724876      -2.80721076       0.09321262       0.00000000
Si      -3.38934627      -0.97739023      -1.22904223       0.00000000
Si      -2.80702764       1.57145069       2.04930647       0.00000000
