10
Lattice="16.28999089631971 0.0 0.0 0.0 16.28999089631971 0.0 0.0 0.0 34.281931910070035" Properties=species:S:1:pos:R:3:initial_magmoms:R:1 pbc="T T T"
Si       1.31955516      -1.19281733      -1.46541628       0.00000000
Si       0.12873987       2.14852068      -0.86057982       0.00000000
Si       0.93543696       0.59005638       2.11270447       0.00000000
Si      -2.12625225      -0.99390829       0.60658484       0.00000000
Si      -0.52660683       2.47645467       1.90120844       0.00000000
Si      -2.52956007      -1.29055570      -1.67398767       0.00000000
Si       3.34884933      -0.80773965      -0.02670564       0.00000000
Si      -0.98692965      -2.80433069       1.77155410       0.00000000
Si       0.16539237      -1.25710093       3.28677318       0.00000000
Si       2.40152067       2.43426357      -1.51865615       0.00000000
