10
Lattice="16.28999089631971 0.0 0.0 0.0 16.28999089631971 0.0 0.0 0.0 34.281931910070035" Properties=species:S:1:pos:R:3:initial_magmoms:R:1 pbc="T T T"
Si       1.34664543       1.36389654       1.38184717       0.00000000
Si      -1.37243250      -1.35000117       1.38362983       0.00000000
Si      -1.14046290       1.47222504      -1.46912216       0.00000000
Si       1.36399428      -1.36928853      -1.51743914       0.00000000
Si       2.69739594      -2.70534546       0.01111764       0.00000000
Si      -2.71577106      -2.70014895      -0.00385672       0.00000000
Si       2.69707014       2.71881729       0.02114168       0.00000000
Si      -2.70181053       2.71806795       0.01165929       0.00000000
Si       2.70459612       0.00768888       2.74524036       0.00000000
Si      -0.01110978      -2.70751203       2.74544605       0.00000000
