10
Lattice="16.28999089631971 0.0 0.0 0.0 16.28999089631971 0.0 0.0 0.0 34.281931910070035" Properties=species:S:1:pos:R:3:initial_magmoms:R:1 pbc="T T T"
Si      -1.35363384       1.35625653      -1.36023925       0.00000000
Si       1.36054080      -1.35884664      -1.36010213       0.00000000
Si       1.34737848       1.36127385       1.37542616       0.00000000
Si      -1.35664749      -1.34413677       1.38351670       0.00000000
Si       2.70353727      -0.08829180       2.68979616       0.00000000
Si      -2.71298547       2.71270854      -0.00167982       0.00000000
Si      -2.71272483      -0.00068418      -2.71780452       0.00000000
Si      -2.71767699      -2.71353933      -0.00195407       0.00000000
Si       0.00242721       2.71337643      -2.71794164       0.00000000
Si       2.71889874       2.71448415       0.00017141       0.00000000
