10
Lattice="16.28999089631971 0.0 0.0 0.0 16.28999089631971 0.0 0.0 0.0 34.281931910070035" Properties=species:S:1:pos:R:3:initial_magmoms:R:1 pbc="T T T"
Si      -0.78292998      -2.08515258      -0.80833412       0.00000000
Si      -1.20467808       0.71592921       1.95180860       0.00000000
Si       0.25446609       1.38292326      -2.11639625       0.00000000
Si      -2.11248720      -1.30481271      -2.57810557       0.00000000
Si      -2.66717799       2.40531624       0.94491342       0.00000000
Si      -1.85132592       1.02706821      -3.11893763       0.00000000
Si       0.93240702      -3.06310644      -2.15633472       0.00000000
Si       0.29761830       1.68379956       3.46511818       0.00000000
Si       1.58441427       3.05264826       2.00278586       0.00000000
Si       1.68186105       0.24105942      -3.77567696       0.00000000
