10
Lattice="16.28999089631971 0.0 0.0 0.0 16.28999089631971 0.0 0.0 0.0 34.281931910070035" Properties=species:S:1:pos:R:3:initial_magmoms:R:1 pbc="T T T"
Si       2.28371465       0.37846557       0.49633409       0.00000000
Si      -0.21325044       0.25957463      -2.34512543       0.00000000
Si      -1.34304927       1.29675568       1.46994150       0.00000000
Si      -1.02601329      -2.15151871       0.40408136       0.00000000
Si      -0.50641116      -0.12645275       3.24835199       0.00000000
Si      -3.37234344       0.91167799       0.03123086       0.00000000
Si      -3.30917082      -1.40256967       0.25560623       0.00000000
Si       2.46143855       2.66508310       0.01408988       0.00000000
Si      -2.33657637      -0.43862521      -3.14855723       0.00000000
Si      -0.19953279       2.47981693      -3.10392213       0.00000000
