10
Lattice="16.28999089631971 0.0 0.0 0.0 16.28999089631971 0.0 0.0 0.0 34.281931910070035" Properties=species:S:1:pos:R:3:initial_magmoms:R:1 pbc="T T T"
Si      -0.50121072       1.34680833       1.90151698       0.00000000
Si      -1.70691507      -0.40707081      -1.62061067       0.00000000
Si       1.68318054       1.16496306      -1.25317672       0.00000000
Si       0.93859722      -2.21436486       0.29982994       0.00000000
Si       3.12696324      -0.64829313      -1.78800944       0.00000000
Si      -3.62371050      -0.61155918      -0.33627166       0.00000000
Si       0.19262925       0.04965192       3.72514537       0.00000000
Si       2.86708887      -1.75544298       1.65736092       0.00000000
Si       1.96423191      -2.79231777      -1.81025843       0.00000000
Si       0.32382891       3.57042591       1.49191623       0.00000000
