10
Lattice="16.28999089631971 0.0 0.0 0.0 16.28999089631971 0.0 0.0 0.0 34.281931910070035" Properties=species:S:1:pos:R:3:initial_magmoms:R:1 pbc="T T T"
Si      -1.44378270       1.81325619       0.53483272       0.00000000
Si       0.99828378       0.40247703       2.18698279       0.00000000
Si      -1.16273133      -2.14402464      -0.02224899       0.00000000
Si       0.96998805      -0.74560959      -2.12722935       0.00000000
Si       0.88580133      -3.23781669       0.50764713       0.00000000
Si      -2.18836602      -1.56607173       2.08783938       0.00000000
Si      -1.93969917       2.08288827      -1.89164378       0.00000000
Si       0.22545360       2.60121978       2.33154977       0.00000000
Si       2.50455492      -2.37198690      -1.09205155       0.00000000
Si      -0.25987437      -1.10714985       3.44537036       0.00000000
