10
Lattice="16.28999089631971 0.0 0.0 0.0 16.28999089631971 0.0 0.0 0.0 34.281931910070035" Properties=species:S:1:pos:R:3:initial_magmoms:R:1 pbc="T T T"
Si      -1.35624024       1.35787351       1.36150769       0.00000000
Si       1.35659862      -1.36042677       1.35993072       0.00000000
Si       1.35689184       1.35302293      -1.37250876       0.00000000
Si      -1.35713619      -1.36402686      -1.36860748       0.00000000
Si      -0.11631060       2.55173632      -2.74947076       0.00000000
Si       0.08641845      -2.65652433      -2.76708482       0.00000000
Si      -2.71524978       2.71332009       0.00881046       0.00000000
Si      -2.71256193      -2.71772586       0.00267399       0.00000000
Si       0.00120546       2.71423395       2.71773595       0.00000000
Si      -2.71406061      -0.00104256       2.71814734       0.00000000
