10
Lattice="16.28999089631971 0.0 0.0 0.0 16.28999089631971 0.0 0.0 0.0 34.281931910070035" Properties=species:S:1:pos:R:3:initial_magmoms:R:1 pbc="T T T"
Si      -1.35542574      -1.35369900       1.37128147       0.00000000
Si       1.35713619       1.36402686       1.36860748       0.00000000
Si      -1.40351382       1.32991560      -1.38842587       0.00000000
Si       1.44355464      -1.29249747      -1.39847734       0.00000000
Si       0.08850357       2.36853342      -2.89608236       0.00000000
Si      -2.68947900      -2.71494027      -0.00470006       0.00000000
Si       2.70940167      -2.71419093       0.00478233       0.00000000
Si       2.71402803       2.71704979      -0.00390129       0.00000000
Si       0.00030951      -2.70896184       2.72733833       0.00000000
Si      -2.71280628       0.00689067       2.72829822       0.00000000
