10
Lattice="16.28999089631971 0.0 0.0 0.0 16.28999089631971 0.0 0.0 0.0 34.281931910070035" Properties=species:S:1:pos:R:3:initial_magmoms:R:1 pbc="T T T"
Si       1.34270325       1.34845362      -1.38663636       0.00000000
Si      -1.37127591      -1.37106414      -1.38910466       0.00000000
Si       1.55680272      -1.19842272       1.43709939       0.00000000
Si      -1.26232839       1.38447081       1.58591734       0.00000000
Si      -2.70299970       2.69091252      -0.00572509       0.00000000
Si       2.70262503       2.70879894       0.01169015       0.00000000
Si       2.70145215      -2.72572425      -0.01731239       0.00000000
Si      -2.73250089      -2.69630451      -0.02461444       0.00000000
Si       2.70492192      -0.01071882      -2.74728699       0.00000000
Si      -0.01068624       2.70453096      -2.74786979       0.00000000
