10
Lattice="16.28999089631971 0.0 0.0 0.0 16.28999089631971 0.0 0.0 0.0 34.281931910070035" Properties=species:S:1:pos:R:3:initial_magmoms:R:1 pbc="T T T"
Si      -1.47320244       1.19871338      -1.37696199       0.00000000
Si      -1.35689184      -1.35302293       1.37250876       0.00000000
Si       1.36259334       1.36069300       1.37072610       0.00000000
Si       1.28376603      -1.31480659      -1.57301704       0.00000000
Si       2.71539639      -2.70406666      -0.02786094       0.00000000
Si      -2.71974582       2.70143493       0.00596506       0.00000000
Si       2.71261080       2.71440177      -0.01558115       0.00000000
Si      -2.71402803      -2.71704979       0.00390129       0.00000000
Si      -0.00029322      -2.71344970       2.73243948       0.00000000
Si      -2.71313208       0.00485057       2.73401645       0.00000000
