10
Lattice="16.28999089631971 0.0 0.0 0.0 16.28999089631971 0.0 0.0 0.0 34.281931910070035" Properties=species:S:1:pos:R:3:initial_magmoms:R:1 pbc="T T T"
Si      -1.78289163      -0.92284479      -1.21063282       0.00000000
Si       0.95430078       1.66412124      -1.35787380       0.00000000
Si      -0.22287978       1.16494677       2.04879224       0.00000000
Si       1.71071064      -1.77999201       0.42458196       0.00000000
Si      -0.39574926      -2.33019328      -2.65393724       0.00000000
Si       1.97692182       0.84018933       2.85150413       0.00000000
Si       2.33934174       0.37377405      -2.69288154       0.00000000
Si       2.67771762       2.72473056      -0.11309616       0.00000000
Si       0.96782148      -3.62985183      -0.98248644       0.00000000
Si       3.60979884      -0.94104072      -1.11474620       0.00000000
