10
Lattice="16.28999089631971 0.0 0.0 0.0 16.28999089631971 0.0 0.0 0.0 34.281931910070035" Properties=species:S:1:pos:R:3:initial_magmoms:R:1 pbc="T T T"
Si      -2.00932263      -1.05690823       0.60727048       0.00000000
Si      -0.35940627       1.71217674       1.60508095       0.00000000
Si       1.62541620      -1.36502774       1.19050931       0.00000000
Si      -0.15299568       0.61398639      -2.55733070       0.00000000
Si       0.11321550       3.23416773      -0.13040854       0.00000000
Si       0.77289534      -3.44848616       0.44604247       0.00000000
Si      -1.71683568      -3.27296141      -0.14148161       0.00000000
Si      -3.79094364       0.36727434      -0.14809803       0.00000000
Si       0.90531675       1.18910484       3.51324863       0.00000000
Si      -2.04592626      -1.38047066       2.93789464       0.00000000
