10
Lattice="16.28999089631971 0.0 0.0 0.0 16.28999089631971 0.0 0.0 0.0 34.281931910070035" Properties=species:S:1:pos:R:3:initial_magmoms:R:1 pbc="T T T"
Si      -1.68748110      -1.27093181       0.89122788       0.00000000
Si      -0.43808697       2.25333543       0.00812482       0.00000000
Si       1.70186095      -0.05105775       1.57981515       0.00000000
Si       0.28201248      -0.30079715      -2.31461449       0.00000000
Si      -0.40402458      -3.30648134       0.50391040       0.00000000
Si      -3.38932998      -0.31624007      -0.56722916       0.00000000
Si      -1.29990942       2.60156676       2.22431583       0.00000000
Si       2.89182428       1.95056949       1.14734834       0.00000000
Si       2.48102306       0.35317372      -2.76593638       0.00000000
Si      -1.70280999       2.77640733      -1.90004286       0.00000000
