10
Lattice="16.28999089631971 0.0 0.0 0.0 16.28999089631971 0.0 0.0 0.0 34.281931910070035" Properties=species:S:1:pos:R:3:initial_magmoms:R:1 pbc="T T T"
Si      -1.52899569      -0.94871331       1.51975317       0.00000000
Si       2.19980160      -0.32475744       0.80271188       0.00000000
Si       0.22287978      -1.16494677      -2.04879224       0.00000000
Si      -0.03064149       2.25263007       0.75485428       0.00000000
Si       1.72717983      -1.84674843       2.53820138       0.00000000
Si       1.58811210       3.11845986      -0.84484440       0.00000000
Si       1.17718056       0.49917447      -3.40666604       0.00000000
Si      -1.70435754      -3.19165083       0.78502240       0.00000000
Si      -0.32301441      -1.18157886       3.51828807       0.00000000
Si       1.93359042      -2.94493878      -1.62421028       0.00000000
