10
Lattice="16.28999089631971 0.0 0.0 0.0 16.28999089631971 0.0 0.0 0.0 34.281931910070035" Properties=species:S:1:pos:R:3:initial_magmoms:R:1 pbc="T T T"
Si      -1.35042471      -1.35492075       1.36070549       0.00000000
Si       1.36622601       1.35959598       1.36043123       0.00000000
Si      -1.26584703       1.42169346      -1.40325967       0.00000000
Si       1.33750674      -1.41358104      -1.41975272       0.00000000
Si      -2.69707014      -2.71881729      -0.02114168       0.00000000
Si      -2.70940167       2.71419093      -0.00478233       0.00000000
Si      -2.70909216       0.00522909       2.72255600       0.00000000
Si       0.00752598      -2.71112841       2.72409868       0.00000000
Si       2.72105780      -2.71999017       0.00135414       0.00000000
Si       0.00433314       2.71779102       2.72375586       0.00000000
