10
Lattice="16.28999089631971 0.0 0.0 0.0 16.28999089631971 0.0 0.0 0.0 34.281931910070035" Properties=species:S:1:pos:R:3:initial_magmoms:R:1 pbc="T T T"
Si      -1.51329213      -1.72377522       0.31625100       0.00000000
Si      -1.01647971       1.90323305       0.92568124       0.00000000
Si       0.03660363       0.32356242      -2.33062416       0.00000000
Si       1.70184888      -0.95469174       1.45845704       0.00000000
Si       3.38932998       0.31624007       0.56722916       0.00000000
Si      -1.42928460      -1.87048296       2.65691977       0.00000000
Si      -0.73164906      -3.25892853      -1.29225815       0.00000000
Si       0.32909058      -1.89249075      -3.07937625       0.00000000
Si      -0.05577696       1.99023794       3.05596168       0.00000000
Si       1.68651999       3.09264740      -1.33281369       0.00000000
