10
Lattice="16.28999089631971 0.0 0.0 0.0 16.28999089631971 0.0 0.0 0.0 34.281931910070035" Properties=species:S:1:pos:R:3:initial_magmoms:R:1 pbc="T T T"
Si      -1.35641129      -1.35702019       1.35780524       0.00000000
Si       1.35734796      -1.35702019      -1.35804521       0.00000000
Si       1.35780408       1.35869127       1.35718816       0.00000000
Si      -1.35823251       1.35818628      -1.35818234       0.00000000
Si       2.71070487       0.00154916       2.71526765       0.00000000
Si       2.71477737      -2.71459621      -0.00061708       0.00000000
Si      -2.71533701      -2.71488943      -0.00013713       0.00000000
Si       2.71464705       2.71560103      -0.00030854       0.00000000
Si      -0.00074934       2.71517749      -2.71513052       0.00000000
Si       0.00068418      -2.71645327      -2.71410207       0.00000000
