10
Lattice="16.28999089631971 0.0 0.0 0.0 16.28999089631971 0.0 0.0 0.0 34.281931910070035" Properties=species:S:1:pos:R:3:initial_magmoms:R:1 pbc="T T T"
Si       1.20837591      -1.38609981      -1.40431213       0.00000000
Si      -1.26165724       1.30262985      -1.45374328       0.00000000
Si      -1.35373810      -1.35459495       1.33622132       0.00000000
Si       1.36572102       1.36190916       1.33073621       0.00000000
Si       2.37496797       0.33117570      -2.52047966       0.00000000
Si       0.60263226       2.19533814      -2.64873461       0.00000000
Si      -2.38345669      -0.41930460      -2.70272594       0.00000000
Si      -0.56220048      -2.19481686      -2.94917482       0.00000000
Si      -2.70779615       0.00324171       2.69142113       0.00000000
Si       0.00729792      -2.70945054       2.68998129       0.00000000
