10
Lattice="16.28999089631971 0.0 0.0 0.0 16.28999089631971 0.0 0.0 0.0 34.281931910070035" Properties=species:S:1:pos:R:3:initial_magmoms:R:1 pbc="T T T"
Si      -1.35748317      -1.35699121       1.35694819       0.00000000
Si       1.35812988       1.35783666       1.35718816       0.00000000
Si       1.35799956      -1.35639662      -1.36171338       0.00000000
Si      -1.35903886       1.35770634      -1.36414740       0.00000000
Si       2.71450044       2.71472850      -0.00113130       0.00000000
Si      -2.71492328      -2.71446269      -0.00013713       0.00000000
Si      -2.71503808       0.00063531       2.71492483       0.00000000
Si       2.71539639       0.00042354       2.71482199       0.00000000
Si       0.00074934      -2.71517749       2.71513052       0.00000000
Si       0.00035838       2.71575477       2.71482199       0.00000000
