10
Lattice="16.28999089631971 0.0 0.0 0.0 16.28999089631971 0.0 0.0 0.0 34.281931910070035" Properties=species:S:1:pos:R:3:initial_magmoms:R:1 pbc="T T T"
Si       1.50755642      -0.11717397       1.81574354       0.00000000
Si       0.52869032       0.75178350      -2.18794268       0.00000000
Si      -0.41670797      -2.28447702      -0.49575129       0.00000000
Si      -2.20518612       0.80145171       0.38848307       0.00000000
Si      -3.08365695      -0.18761193      -1.55856034       0.00000000
Si      -1.76936346       1.13873616      -2.96144634       0.00000000
Si      -0.44887421      -3.28202775       1.63984285       0.00000000
Si       0.82884986       1.49151240       3.33796501       0.00000000
Si       1.47460175      -1.16654319      -3.33611379       0.00000000
Si       3.75194375      -0.12854439       0.92544127       0.00000000
