10
Lattice="16.28999089631971 0.0 0.0 0.0 16.28999089631971 0.0 0.0 0.0 34.281931910070035" Properties=species:S:1:pos:R:3:initial_magmoms:R:1 pbc="T T T"
Si       1.77057639       0.80871705       1.54486268       0.00000000
Si       0.29813958      -1.91749590      -1.63689460       0.00000000
Si      -1.82125621       1.77551226       0.24644887       0.00000000
Si      -0.84651637      -1.92467979       1.48350142       0.00000000
Si       0.92429460       1.61507205      -2.09137042       0.00000000
Si      -2.14597784      -0.52571088       2.91654868       0.00000000
Si       0.56220048       2.19481686       2.94917482       0.00000000
Si       2.63142144      -1.73729592      -2.08434262       0.00000000
Si      -1.21521608      -1.36350558      -3.40292931       0.00000000
Si      -0.69945676       3.49744671       1.49543154       0.00000000
