10
Lattice="16.28999089631971 0.0 0.0 0.0 16.28999089631971 0.0 0.0 0.0 34.281931910070035" Properties=species:S:1:pos:R:3:initial_magmoms:R:1 pbc="T T T"
Si      -1.97501330       1.18486944       0.19742976       0.00000000
Si       1.46962841       0.70154514       1.71077220       0.00000000
Si      -0.66988227      -2.27703249       0.39921332       0.00000000
Si       0.42051983       0.33987456      -2.37309950       0.00000000
Si       2.57611037      -0.52043292      -2.50508501       0.00000000
Si       0.84347339      -2.83102281       2.16524803       0.00000000
Si       3.53590088      -0.27271089       1.34412674       0.00000000
Si       0.11579909      -3.47550408      -1.54549892       0.00000000
Si      -3.78597260      -0.35733744      -0.17586641       0.00000000
Si      -1.80593939       3.33306432      -0.79277012       0.00000000
