10
Lattice="16.28999089631971 0.0 0.0 0.0 16.28999089631971 0.0 0.0 0.0 34.281931910070035" Properties=species:S:1:pos:R:3:initial_magmoms:R:1 pbc="T T T"
Si      -1.35277210       1.35483930      -1.36106202       0.00000000
Si       1.36140417      -1.36005373      -1.35999928       0.00000000
Si      -1.36913378      -1.34419216       1.37148373       0.00000000
Si       1.36348929       1.35257499       1.38063702       0.00000000
Si       0.09811467      -2.59813331       2.65585703       0.00000000
Si      -2.71302524       2.71267596       0.00061708       0.00000000
Si      -2.71218733      -0.00293220      -2.71739313       0.00000000
Si       0.00320913       2.71218726      -2.71749598       0.00000000
Si      -2.71361290      -2.71708145       0.00315394       0.00000000
Si       2.71684620       2.71450044      -0.00164553       0.00000000
