10
Lattice="16.28999089631971 0.0 0.0 0.0 16.28999089631971 0.0 0.0 0.0 34.281931910070035" Properties=species:S:1:pos:R:3:initial_magmoms:R:1 pbc="T T T"
Si      -1.33283314      -1.35992178       1.35979359       0.00000000
Si       1.35972630      -1.35285192      -1.35735957       0.00000000
Si      -1.35450536       1.36001952      -1.35633111       0.00000000
Si       1.36484136       1.36278882       1.34587512       0.00000000
Si      -2.57130254       0.05271444       2.73539116       0.00000000
Si       2.71352304      -2.70992295       0.00795341       0.00000000
Si       0.00146610      -2.71267596      -2.71451345       0.00000000
Si      -2.71343108       0.00215028      -2.71427348       0.00000000
Si      -2.71359507      -2.71531494       0.00318822       0.00000000
Si       0.00190593       2.71703971      -2.71413635       0.00000000
