10
Lattice="16.28999089631971 0.0 0.0 0.0 16.28999089631971 0.0 0.0 0.0 34.281931910070035" Properties=species:S:1:pos:R:3:initial_magmoms:R:1 pbc="T T T"
Si      -1.43751105       0.84193236       1.69249992       0.00000000
Si       1.55448954       1.30508964      -1.28461327       0.00000000
Si       1.91863620       0.07568334       1.47645507       0.00000000
Si      -1.24005996      -1.66402350      -1.27323166       0.00000000
Si       0.10394649       2.35076103      -2.76175398       0.00000000
Si      -0.56964501      -0.12057858       3.63848059       0.00000000
Si      -2.59372801      -0.37194957      -2.74783551       0.00000000
Si      -1.19550681       3.14928054       1.75509877       0.00000000
Si       2.80914534      -0.34603218      -2.71050246       0.00000000
Si      -3.03286243      -2.62604574       0.04919460       0.00000000
