10
Lattice="16.28999089631971 0.0 0.0 0.0 16.28999089631971 0.0 0.0 0.0 34.281931910070035" Properties=species:S:1:pos:R:3:initial_magmoms:R:1 pbc="T T T"
Si      -1.84241040      -1.15326684       0.76215634       0.00000000
Si      -0.86786604       0.96251094      -1.94598067       0.00000000
Si       1.33918461       1.52104617       1.20233659       0.00000000
Si       1.31149161      -2.09289033       0.05279420       0.00000000
Si       2.48828121       0.19626192      -2.16202553       0.00000000
Si       1.24636419      -1.91010024       2.40049078       0.00000000
Si       2.56935654       2.20276638      -0.72352058       0.00000000
Si      -1.04145228      -1.56499659       2.92133646       0.00000000
Si       2.19470283       0.13748760       2.94865918       0.00000000
Si       0.56964501       0.12057858      -3.63848059       0.00000000
