10
Lattice="16.28999089631971 0.0 0.0 0.0 16.28999089631971 0.0 0.0 0.0 34.28971787722196" Properties=species:S:1:pos:R:3:initial_magmoms:R:1 pbc="T T T"
Si       0.62398845      -0.97259445       1.98578725       0.00000000
Si       1.55028672      -0.92439234      -1.43550555       0.00000000
Si       0.11468160       2.31244695      -0.22302045       0.00000000
Si      -1.95617555      -1.20661659      -0.48005632       0.00000000
Si       0.27347652      -0.65137194      -3.34698694       0.00000000
Si       1.30052844      -3.12293961      -0.69796760       0.00000000
Si       0.80980848       2.84172534       1.92684319       0.00000000
Si      -0.93599082      -3.16773711      -1.31573150       0.00000000
Si      -3.07073735       0.31433184      -1.89642820       0.00000000
Si      -1.35219218      -0.93335184       3.26191411       0.00000000
