10
Lattice="16.28999089631971 0.0 0.0 0.0 16.28999089631971 0.0 0.0 0.0 34.28971787722196" Properties=species:S:1:pos:R:3:initial_magmoms:R:1 pbc="T T T"
Si      -0.69512688      -0.52927839      -2.14986364       0.00000000
Si      -2.05041904      -0.10290393       1.16554245       0.00000000
Si       1.84050936      -0.49192542       1.39771826       0.00000000
Si       0.37349712       2.32071317      -0.64961907       0.00000000
Si       1.77039720       1.74250450       2.22060337       0.00000000
Si       1.18908855       0.62193591      -3.11481113       0.00000000
Si      -3.01970078       1.73196487       0.11538497       0.00000000
Si      -2.73175874       0.78840360      -2.04236532       0.00000000
Si      -0.80980848      -2.84172534      -1.92684319       0.00000000
Si      -1.33495247       3.30404273       0.51763787       0.00000000
