10
Lattice="16.28999089631971 0.0 0.0 0.0 16.28999089631971 0.0 0.0 0.0 34.28971787722196" Properties=species:S:1:pos:R:3:initial_magmoms:R:1 pbc="T T T"
Si      -1.35565380      -1.35632892      -1.35687918       0.00000000
Si      -1.35325917       1.36129828       1.36054819       0.00000000
Si       1.35928647       1.35934349      -1.35687918       0.00000000
Si       1.35887922      -1.35859170       1.36380571       0.00000000
Si      -2.71272809       0.00136347      -2.71454703       0.00000000
Si       0.00130320      -2.71332660      -2.71444416       0.00000000
Si      -2.71396124       2.71553485       0.00027432       0.00000000
Si       0.00179190       2.71630048      -2.71396411       0.00000000
Si       2.71621089      -2.71445061       0.00037719       0.00000000
Si       2.71678104       0.00136999      -2.71410127       0.00000000
