10
Lattice="16.28999089631971 0.0 0.0 0.0 16.28999089631971 0.0 0.0 0.0 34.28971787722196" Properties=species:S:1:pos:R:3:initial_magmoms:R:1 pbc="T T T"
Si      -1.35721764       1.35726651       1.35715350       0.00000000
Si       1.35726651      -1.35775521       1.35708492       0.00000000
Si      -1.35786924      -1.35783666      -1.35735924       0.00000000
Si       1.35834165       1.35769005      -1.35780501       0.00000000
Si       2.71151937      -0.00048870      -2.71502709       0.00000000
Si       2.71381626      -0.00092853       2.71276397       0.00000000
Si      -2.71324611       0.00076563      -2.71458132       0.00000000
Si      -2.71480995      -0.00009774       2.71427271       0.00000000
Si       0.00084708       2.71409319       2.71540428       0.00000000
Si      -2.71485882      -2.71521720       0.00010287       0.00000000
