10
Lattice="16.28999089631971 0.0 0.0 0.0 16.28999089631971 0.0 0.0 0.0 34.28971787722196" Properties=species:S:1:pos:R:3:initial_magmoms:R:1 pbc="T T T"
Si       1.35166275       1.34816040      -1.37875604       0.00000000
Si      -1.36519974      -1.36252818      -1.37597857       0.00000000
Si       1.35307998      -1.24900317       1.52808784       0.00000000
Si      -1.41783273       1.31364189       1.42923053       0.00000000
Si      -2.34994653      -0.49603050       2.65910053       0.00000000
Si      -0.49682871      -2.17095201       2.94240234       0.00000000
Si       2.69148267      -2.72666907       0.01584186       0.00000000
Si       2.69876430       2.72285721       0.00589783       0.00000000
Si      -2.73043206       2.70586674       0.00133730       0.00000000
Si      -0.00545715       2.70713736      -2.73673249       0.00000000
