10
Lattice="16.28999089631971 0.0 0.0 0.0 16.28999089631971 0.0 0.0 0.0 34.28971787722196" Properties=species:S:1:pos:R:3:initial_magmoms:R:1 pbc="T T T"
Si      -0.31899078      -2.30739705       0.30157824       0.00000000
Si       1.66900824       0.18963189       1.65808023       0.00000000
Si      -1.64709819       1.66736295       0.28319894       0.00000000
Si       1.22930856       1.07992926      -1.74737071       0.00000000
Si      -0.62333685       2.69654886      -1.73447777       0.00000000
Si      -3.54339754       0.25761006       0.31059644       0.00000000
Si       1.77187959      -3.13047699      -0.27596380       0.00000000
Si      -0.72813042      -2.43243909       2.58572049       0.00000000
Si      -2.70267390      -1.15251750       2.16155644       0.00000000
Si       3.85367643      -0.09749565       0.73993824       0.00000000
