10
Lattice="16.28999089631971 0.0 0.0 0.0 16.28999089631971 0.0 0.0 0.0 34.28971787722196" Properties=species:S:1:pos:R:3:initial_magmoms:R:1 pbc="T T T"
Si      -0.35777727      -2.12690385      -0.90936383       0.00000000
Si       0.98976411       1.25302680      -1.75227414       0.00000000
Si      -1.88328690       1.20047526       0.80728328       0.00000000
Si       1.77862365      -0.54024156       1.47905352       0.00000000
Si       1.82689092      -2.41403139      -1.82750583       0.00000000
Si       3.16816065       1.66358367      -0.82984593       0.00000000
Si      -1.42389261       3.40713495      -0.03521556       0.00000000
Si       3.00718287      -2.24562537       0.21314501       0.00000000
Si      -3.82189464       0.26285544      -0.10646963       0.00000000
Si      -0.30882582       3.15703458      -2.23191898       0.00000000
