10
Lattice="16.28999089631971 0.0 0.0 0.0 16.28999089631971 0.0 0.0 0.0 34.28971787722196" Properties=species:S:1:pos:R:3:initial_magmoms:R:1 pbc="T T T"
Si      -1.59065334      -1.13774247      -1.25346545       0.00000000
Si       1.31180112      -1.34032491       1.40796403       0.00000000
Si       1.80028935       0.87733053      -1.22468573       0.00000000
Si      -1.39556430       1.40035356       1.38350517       0.00000000
Si       0.91970082       1.20244635      -3.32903082       0.00000000
Si       2.59082676      -2.73828384      -0.04131570       0.00000000
Si       2.63909403       2.69835705       0.02255579       0.00000000
Si       2.67794568       0.03572397       2.77081992       0.00000000
Si      -0.03785796      -2.67893937       2.77256870       0.00000000
Si      -2.81672508      -2.64231945       0.01827300       0.00000000
