10
Lattice="16.28999089631971 0.0 0.0 0.0 16.28999089631971 0.0 0.0 0.0 34.28971787722196" Properties=species:S:1:pos:R:3:initial_magmoms:R:1 pbc="T T T"
Si       1.65525948       1.00023858      -1.34512264       0.00000000
Si       1.38272778      -1.29849219       1.40320119       0.00000000
Si      -0.83880468      -1.82102652      -1.24724152       0.00000000
Si      -1.32113529       1.41651324       1.37446639       0.00000000
Si      -0.12085551       0.53366040      -3.65875407       0.00000000
Si       2.67362883      -2.62798425      -0.01069840       0.00000000
Si       3.50278983      -0.65774133      -1.21277005       0.00000000
Si      -2.63909403      -2.69835705      -0.02255579       0.00000000
Si      -2.54772342       2.84863230      -0.12235264       0.00000000
Si       0.03885165      -2.66263308       2.74826413       0.00000000
