10
Lattice="16.28999089631971 0.0 0.0 0.0 16.28999089631971 0.0 0.0 0.0 34.28971787722196" Properties=species:S:1:pos:R:3:initial_magmoms:R:1 pbc="T T T"
Si       1.33823979       1.11228120       1.59906760       0.00000000
Si      -1.13938776       1.42579854      -1.51409763       0.00000000
Si      -1.33656192      -1.41864723       1.55267358       0.00000000
Si       1.58534280      -1.27951434      -1.51238314       0.00000000
Si       0.55860039      -2.32819938       2.62018168       0.00000000
Si      -2.53125423      -2.68872966      -0.08905045       0.00000000
Si      -2.67320529       2.67840180      -0.05592656       0.00000000
Si      -2.47625919       0.06595821      -2.89436241       0.00000000
Si       2.84708475       2.59659342       0.00757803       0.00000000
Si       1.76430474      -0.33075216       3.49652449       0.00000000
