10
Lattice="16.28999089631971 0.0 0.0 0.0 16.28999089631971 0.0 0.0 0.0 34.28971787722196" Properties=species:S:1:pos:R:3:initial_magmoms:R:1 pbc="T T T"
Si       1.22658813      -1.43211906       1.49681903       0.00000000
Si      -1.57354884      -1.28259315      -1.32995972       0.00000000
Si      -1.47919716       1.25942877       1.49750825       0.00000000
Si       0.80097930       1.88804425      -1.34696743       0.00000000
Si      -2.44423305       0.71983881      -2.17749915       0.00000000
Si       2.58374061       2.65633278       0.05469899       0.00000000
Si       2.54772342      -2.84863230       0.12235264       0.00000000
Si       2.58413157      -0.08278578       2.86924518       0.00000000
Si      -2.83863513       2.61787860       0.11910883       0.00000000
Si      -0.13264947       2.63477296       2.87099396       0.00000000
