10
Lattice="16.28999089631971 0.0 0.0 0.0 16.28999089631971 0.0 0.0 0.0 34.28971787722196" Properties=species:S:1:pos:R:3:initial_magmoms:R:1 pbc="T T T"
Si      -1.35739683      -1.35640314      -1.35694776       0.00000000
Si       1.35969372      -1.35319401       1.35945091       0.00000000
Si       1.35826020       1.35878528      -1.35677632       0.00000000
Si      -1.35733167       1.35585891       1.36342852       0.00000000
Si       0.00091224      -2.71435383      -2.71458132       0.00000000
Si       2.71560816       0.00127062      -2.71392982       0.00000000
Si      -2.71490769       0.00112401      -2.71482135       0.00000000
Si       2.71412577       2.71573752      -0.00065151       0.00000000
Si       0.00057015       2.71582060      -2.71447845       0.00000000
Si      -2.71621089       2.71445061      -0.00037719       0.00000000
