10
Lattice="16.28999089631971 0.0 0.0 0.0 16.28999089631971 0.0 0.0 0.0 34.28971787722196" Properties=species:S:1:pos:R:3:initial_magmoms:R:1 pbc="T T T"
Si       1.13964840       1.82982312       0.89228754       0.00000000
Si      -1.16607078       1.44510219      -1.47764764       0.00000000
Si       1.53381753      -1.25260326      -1.45817107       0.00000000
Si      -1.76513553      -1.04396094       1.38040194       0.00000000
Si      -2.51631630       2.67691941      -0.00593212       0.00000000
Si       2.67320529      -2.67840180       0.05592656       0.00000000
Si      -2.51542035       0.10029753      -2.84265349       0.00000000
Si      -2.66387112      -2.76897420      -0.00630931       0.00000000
Si      -0.47912148       3.63608017       1.19444870       0.00000000
Si       0.19694610      -2.61244359      -2.83843585       0.00000000
