10
Lattice="16.28999089631971 0.0 0.0 0.0 16.28999089631971 0.0 0.0 0.0 34.28971787722196" Properties=species:S:1:pos:R:3:initial_magmoms:R:1 pbc="T T T"
Si      -0.26757954      -2.04595884      -1.11294200       0.00000000
Si      -1.87393644       0.06131556       1.41136558       0.00000000
Si      -0.38159325       1.45172637      -1.85881236       0.00000000
Si       1.99770786      -0.27189639       1.32615558       0.00000000
Si       3.47773581       0.12961953      -0.51955810       0.00000000
Si      -1.52568882      -2.05169292       2.50994017       0.00000000
Si      -1.53538137      -3.25487232       0.46435162       0.00000000
Si       2.46114207       1.99395043      -1.77415099       0.00000000
Si      -1.94404860       2.29574548       2.23425069       0.00000000
Si      -3.71444580       0.55324098       0.01364732       0.00000000
