10
Lattice="16.28999089631971 0.0 0.0 0.0 16.28999089631971 0.0 0.0 0.0 34.28971787722196" Properties=species:S:1:pos:R:3:initial_magmoms:R:1 pbc="T T T"
Si       1.91909232      -0.00970884      -1.38201356       0.00000000
Si      -1.99554129       0.34209000      -1.32540121       0.00000000
Si      -1.59853770      -2.02957110       0.30716746       0.00000000
Si       1.77611499       0.46657818       2.31363143       0.00000000
Si      -0.71794917      -2.35468692       2.41151255       0.00000000
Si      -3.41009973      -0.46548675       0.44010877       0.00000000
Si       1.52785539       2.12188653      -2.50918580       0.00000000
Si       0.12085551      -0.53366040       3.65875407       0.00000000
Si      -2.00523384      -0.86108940      -3.37098976       0.00000000
Si       3.99583926      -0.53019063       0.03761584       0.00000000
