10
Lattice="16.28999089631971 0.0 0.0 0.0 16.28999089631971 0.0 0.0 0.0 34.28971787722196" Properties=species:S:1:pos:R:3:initial_magmoms:R:1 pbc="T T T"
Si       1.70844959      -0.98332956      -1.16725694       0.00000000
Si      -1.68474831      -1.57207785      -0.40225291       0.00000000
Si      -0.78410449       2.11251978      -0.67094728       0.00000000
Si       0.89655599      -0.63817704       2.10864738       0.00000000
Si      -3.46527789      -0.32195556       0.54702418       0.00000000
Si      -0.71546657      -3.40694666       0.64790458       0.00000000
Si      -3.07576770       1.70134389      -0.61975271       0.00000000
Si       1.33495247      -3.30404273      -0.51763787       0.00000000
Si       3.64202372      -0.18388152      -0.16064742       0.00000000
Si      -0.37412754      -2.47606697       2.71451274       0.00000000
