10
Lattice="16.28999089631971 0.0 0.0 0.0 16.28999089631971 0.0 0.0 0.0 34.28971787722196" Properties=species:S:1:pos:R:3:initial_magmoms:R:1 pbc="T T T"
Si       1.35433431      -1.35517428      -1.35855938       0.00000000
Si      -1.35773892      -1.35579330       1.35735924       0.00000000
Si       1.35669636       1.35872899       1.35657058       0.00000000
Si      -1.35677781       1.36111710      -1.35825077       0.00000000
Si       0.00024435       2.69431513      -2.72518028       0.00000000
Si       2.71461447      -2.71234305      -0.00123443       0.00000000
Si      -0.00055386      -2.71323900       2.71410127       0.00000000
Si      -2.71401174      -2.71421640      -0.00120014       0.00000000
Si       2.71463076       0.00113897       2.71430700       0.00000000
Si       2.71415835       2.71534552      -0.00113156       0.00000000
