10
Lattice="16.28999089631971 0.0 0.0 0.0 16.28999089631971 0.0 0.0 0.0 34.28971787722196" Properties=species:S:1:pos:R:3:initial_magmoms:R:1 pbc="T T T"
Si      -1.35586557      -1.35695224      -1.35612481       0.00000000
Si       1.35876519       1.35769820      -1.35626197       0.00000000
Si      -1.35842310       1.36177070       1.35643342       0.00000000
Si       1.36259334      -1.35665146       1.36102824       0.00000000
Si      -2.71331127       2.71260265       0.00006858       0.00000000
Si      -2.71355562       0.00008308      -2.71382695       0.00000000
Si       0.00148239      -2.71446690      -2.71327831       0.00000000
Si       0.00187335       2.71475293      -2.71413556       0.00000000
Si      -2.71412577      -2.71573752       0.00065151       0.00000000
Si       2.71591767       0.00005539      -2.71406698       0.00000000
