10
Lattice="16.28999089631971 0.0 0.0 0.0 16.28999089631971 0.0 0.0 0.0 34.28971787722196" Properties=species:S:1:pos:R:3:initial_magmoms:R:1 pbc="T T T"
Si       0.08014680       1.82060298       1.44692403       0.00000000
Si       1.79714538      -1.34183499       0.76404392       0.00000000
Si      -2.00165004      -1.21237836       0.43102199       0.00000000
Si       0.61543620      -3.32021870       0.50772814       0.00000000
Si       1.48840101       3.18503709       0.09686851       0.00000000
Si      -1.08859554      -2.65661297       2.03314138       0.00000000
Si      -2.39780655      -2.31136692      -1.57849375       0.00000000
Si      -2.10452139       2.10773052       2.36506603       0.00000000
Si      -0.33355404      -3.45226544      -1.68167157       0.00000000
Si       3.72578364      -1.11508471      -0.49504093       0.00000000
