10
Lattice="16.28999089631971 0.0 0.0 0.0 16.28999089631971 0.0 0.0 0.0 34.28971787722196" Properties=species:S:1:pos:R:3:initial_magmoms:R:1 pbc="T T T"
Si       1.32939432      -1.37898434      -1.29604919       0.00000000
Si       0.05659146       2.15500410      -0.90699783       0.00000000
Si       0.38133261      -0.21737376       2.29761812       0.00000000
Si      -2.04527466      -1.10211624      -0.41147684       0.00000000
Si       1.09880937      -3.22185968       0.20323527       0.00000000
Si      -3.66386535       0.59012154      -0.29893793       0.00000000
Si      -1.12370049       1.98659808      -2.94764867       0.00000000
Si       0.21843261       1.92888261       3.18328774       0.00000000
Si      -2.44040490      -2.53002338       1.48128235       0.00000000
Si       0.59329809      -1.17583989      -3.63052878       0.00000000
