10
Lattice="16.28999089631971 0.0 0.0 0.0 16.28999089631971 0.0 0.0 0.0 34.28971787722196" Properties=species:S:1:pos:R:3:initial_magmoms:R:1 pbc="T T T"
Si       1.35278676       1.34941473       1.35701634       0.00000000
Si      -1.35953082       1.35464382      -1.36113111       0.00000000
Si       1.35622395      -1.35943308      -1.36030816       0.00000000
Si      -1.37556018      -1.36414089       1.39408355       0.00000000
Si       2.71645524       2.70954828       0.00123443       0.00000000
Si      -2.71538010       2.71068858      -0.00051435       0.00000000
Si      -0.00047241       2.71265967      -2.71691302       0.00000000
Si       2.71595025      -2.71477737       0.00349755       0.00000000
Si      -2.71808424      -2.71288773      -0.00366900       0.00000000
Si       2.71441899      -0.00174303      -2.71657013       0.00000000
