10
Lattice="16.28999089631971 0.0 0.0 0.0 16.28999089631971 0.0 0.0 0.0 34.28971787722196" Properties=species:S:1:pos:R:3:initial_magmoms:R:1 pbc="T T T"
Si      -1.35278676      -1.34941473      -1.35701634       0.00000000
Si      -1.17965664       1.50257331       1.36459438       0.00000000
Si       1.36366848       1.36013355      -1.35578191       0.00000000
Si       1.20845736      -1.35381303       1.51536635       0.00000000
Si       2.13526062       0.60356079       2.74917967       0.00000000
Si       0.51940665       2.39940297       2.74904251       0.00000000
Si      -2.53884537       0.23705208       2.75418597       0.00000000
Si       0.00343719      -2.70884781      -2.71732450       0.00000000
Si      -2.71231758       0.00522909      -2.71814746       0.00000000
Si       2.71692765      -2.71332756       0.04670262       0.00000000
