10
Lattice="16.28999089631971 0.0 0.0 0.0 16.28999089631971 0.0 0.0 0.0 34.28971787722196" Properties=species:S:1:pos:R:3:initial_magmoms:R:1 pbc="T T T"
Si       1.34933328      -1.37515293      -1.34685629       0.00000000
Si      -1.34188712      -1.37525067       1.36363426       0.00000000
Si       1.37503890       1.34247519       1.36706324       0.00000000
Si      -1.40382822       1.37909511      -1.38723246       0.00000000
Si      -2.70385397       2.70067023       0.01755977       0.00000000
Si       2.72469798       2.68108965       0.00245857       0.00000000
Si      -2.70007469      -2.71469592      -0.01685683       0.00000000
Si       0.01523115       2.69711901       2.72318805       0.00000000
Si      -2.69809637      -0.01330893       2.72449106       0.00000000
Si       2.73041577      -0.01612710       2.72428532       0.00000000
