10
Lattice="16.28999089631971 0.0 0.0 0.0 16.28999089631971 0.0 0.0 0.0 34.28971787722196" Properties=species:S:1:pos:R:3:initial_magmoms:R:1 pbc="T T T"
Si      -1.46580678       1.40234094      -1.10577544       0.00000000
Si       1.42716690       1.24400214       1.48673442       0.00000000
Si       1.83518253       0.27174978      -1.63318589       0.00000000
Si      -0.47508156      -2.04700140       1.44205489       0.00000000
Si       0.30998241      -0.12598686       2.97220839       0.00000000
Si       3.27003831       0.45823770       0.24585741       0.00000000
Si      -2.28602457      -0.25422174      -2.58397171       0.00000000
Si      -1.28358684      -3.15727893      -0.61834683       0.00000000
Si      -0.88664841      -2.08691190      -2.78864715       0.00000000
Si       2.00929005       2.59203222      -1.70560581       0.00000000
