10
Lattice="16.28999089631971 0.0 0.0 0.0 16.28999089631971 0.0 0.0 0.0 34.28971787722196" Properties=species:S:1:pos:R:3:initial_magmoms:R:1 pbc="T T T"
Si       1.34170956       1.35928647       1.36404574       0.00000000
Si      -1.35259128       1.35293337      -1.35965665       0.00000000
Si       1.36109466      -1.36158336      -1.35694776       0.00000000
Si      -1.36293543      -1.34627076       1.38482532       0.00000000
Si       0.17847324      -2.57966811       2.72229651       0.00000000
Si       2.67817374      -0.00702099       2.68584652       0.00000000
Si      -2.70875007       2.71474479       0.00068579       0.00000000
Si      -2.71047681      -0.00340461      -2.71595291       0.00000000
Si       0.00434943       2.71176372      -2.71595291       0.00000000
Si      -2.71003698      -2.72096757       0.00017145       0.00000000
