10
Lattice="16.28999089631971 0.0 0.0 0.0 16.28999089631971 0.0 0.0 0.0 34.28971787722196" Properties=species:S:1:pos:R:3:initial_magmoms:R:1 pbc="T T T"
Si       1.35259128      -1.35293337       1.35965665       0.00000000
Si      -1.35788553      -1.35633798      -1.35629626       0.00000000
Si       1.35694071       1.35883035      -1.35629626       0.00000000
Si      -1.35615879       1.36181142       1.36034245       0.00000000
Si       0.00807984       2.68727985       2.72565691       0.00000000
Si       2.69430084       0.00635310       2.72370239       0.00000000
Si      -0.00045612      -2.71345788      -2.71351834       0.00000000
Si       2.71423980       0.00092853      -2.71396411       0.00000000
Si       2.71368594      -2.71451673       0.00270889       0.00000000
Si       2.71309950       2.71518462       0.00054864       0.00000000
