10
Lattice="16.28999089631971 0.0 0.0 0.0 16.28999089631971 0.0 0.0 0.0 34.28971787722196" Properties=species:S:1:pos:R:3:initial_magmoms:R:1 pbc="T T T"
Si      -1.30564350       1.39318613       1.32135502       0.00000000
Si      -1.36423863      -1.32546843      -1.36531446       0.00000000
Si       1.35278676       1.38681164      -1.36438864       0.00000000
Si       1.24331796      -1.51037622       1.53878624       0.00000000
Si       0.31324041       1.64094287       3.02171450       0.00000000
Si       2.20973850       0.07480368       3.01530232       0.00000000
Si       2.68622100      -2.68092675      -0.00195452       0.00000000
Si      -0.00807984      -2.68727985      -2.72565691       0.00000000
Si      -2.74315455      -2.68117110       0.01711058       0.00000000
Si       2.70501966       0.02790477      -2.72510827       0.00000000
