10
Lattice="16.28999089631971 0.0 0.0 0.0 16.28999089631971 0.0 0.0 0.0 34.28971787722196" Properties=species:S:1:pos:R:3:initial_magmoms:R:1 pbc="T T T"
Si       0.69268338      -1.04894568       1.94834286       0.00000000
Si      -1.56424725       1.70075745       0.46308290       0.00000000
Si       1.97496702       1.00892115      -0.81496418       0.00000000
Si      -0.81231714      -1.56915054      -1.57965961       0.00000000
Si      -2.46666438      -0.07703541      -2.36623188       0.00000000
Si      -0.27127737       2.55835006       2.40501358       0.00000000
Si      -1.16911701       3.12866459      -1.42967630       0.00000000
Si      -3.63332160       0.50824800      -0.35308142       0.00000000
Si       2.37612456      -2.60807787       1.17966982       0.00000000
Si       0.74531637       0.69401916       3.65960648       0.00000000
