10
Lattice="16.28999089631971 0.0 0.0 0.0 16.28999089631971 0.0 0.0 0.0 34.28971787722196" Properties=species:S:1:pos:R:3:initial_magmoms:R:1 pbc="T T T"
Si       0.42705864       1.49049853       1.76132663       0.00000000
Si       1.48002795       0.40151592      -1.84571368       0.00000000
Si      -1.99770786       0.27189639      -1.32615558       0.00000000
Si       0.39123693      -2.13159537       1.12717224       0.00000000
Si       2.75131584       1.11610935       1.49023197       0.00000000
Si      -1.52785539      -2.12188653       2.50918580       0.00000000
Si       0.78926679      -3.48809625      -0.70410546       0.00000000
Si       3.50101422       0.86737734      -0.69501868       0.00000000
Si      -2.26528740      -1.77406245      -2.43909758       0.00000000
Si       0.46343421       2.26584682      -3.10030657       0.00000000
