10
Lattice="16.28999089631971 0.0 0.0 0.0 16.28999089631971 0.0 0.0 0.0 34.28971787722196" Properties=species:S:1:pos:R:3:initial_magmoms:R:1 pbc="T T T"
Si      -0.81319680       1.59135381      -1.47178409       0.00000000
Si       2.33582310      -0.08786826      -0.52552451       0.00000000
Si      -1.09652877      -2.17683270      -0.41521443       0.00000000
Si      -0.67600242       1.78626366       1.66277793       0.00000000
Si       2.39779026      -1.25732736       1.68986682       0.00000000
Si      -0.37519128       3.44040469      -0.13743327       0.00000000
Si      -1.46872269      -2.83804380       1.99315376       0.00000000
Si       0.55817685      -2.16507132       3.07911693       0.00000000
Si       3.12627906       2.18208038      -0.08136955       0.00000000
Si      -3.13745400       1.96574299      -1.20068943       0.00000000
