10
Lattice="16.28999089631971 0.0 0.0 0.0 16.28999089631971 0.0 0.0 0.0 34.28971787722196" Properties=species:S:1:pos:R:3:initial_magmoms:R:1 pbc="T T T"
Si       1.35818757       1.33944525       1.38049110       0.00000000
Si      -1.35549090      -1.37515130       1.37771363       0.00000000
Si       1.36570703      -1.38901246      -1.36933665       0.00000000
Si      -1.26170937       1.44689409      -1.57718732       0.00000000
Si      -0.20119779      -2.63301379      -2.61703011       0.00000000
Si      -2.68306074       2.69096139       0.01501548       0.00000000
Si       2.70007469       2.71469592       0.01685683       0.00000000
Si       0.00197831       2.70138699       2.74134789       0.00000000
Si      -2.72126079      -2.73379375       0.01130876       0.00000000
Si      -2.71456560      -0.01715337       2.74052494       0.00000000
