10
Lattice="16.28999089631971 0.0 0.0 0.0 16.28999089631971 0.0 0.0 0.0 34.28971787722196" Properties=species:S:1:pos:R:3:initial_magmoms:R:1 pbc="T T T"
Si      -1.35972630       1.35534429      -1.36380571       0.00000000
Si       1.35513252      -1.36032088      -1.36349710       0.00000000
Si       1.35376416       1.35086454       1.40022141       0.00000000
Si      -1.36606311      -1.36694440       1.39428929       0.00000000
Si       2.71001796      -2.71408804      -0.00072008       0.00000000
Si       2.71417207       2.71274112      -0.00236599       0.00000000
Si      -2.71301805      -2.71653251      -0.00257173       0.00000000
Si      -2.71595025       2.71477737      -0.00349755       0.00000000
Si       2.71327376      -0.00208512      -2.71982765       0.00000000
Si      -0.00153126       2.71303434      -2.72006768       0.00000000
