10
Lattice="16.28999089631971 0.0 0.0 0.0 16.28999089631971 0.0 0.0 0.0 34.28971787722196" Properties=species:S:1:pos:R:3:initial_magmoms:R:1 pbc="T T T"
Si      -1.92863826      -0.22675028       1.25908485       0.00000000
Si       0.27598518       2.24072371       0.51345452       0.00000000
Si       1.17252162      -1.93204843       0.67893679       0.00000000
Si       1.13818230       1.31056471      -1.61058895       0.00000000
Si       2.45460978      -0.38383475      -2.65807184       0.00000000
Si       3.19095036      -1.67523658      -0.62973102       0.00000000
Si      -0.03202614      -3.75895564      -0.22339764       0.00000000
Si      -1.19254203      -0.42989473       3.59356444       0.00000000
Si      -0.33925554       2.54629153      -2.93503004       0.00000000
Si      -3.72578364       1.11508471       0.49504093       0.00000000
