10
Lattice="16.28999089631971 0.0 0.0 0.0 16.28999089631971 0.0 0.0 0.0 34.28971787722196" Properties=species:S:1:pos:R:3:initial_magmoms:R:1 pbc="T T T"
Si       1.28882637       1.94649210      -0.26423671       0.00000000
Si      -0.60626493      -0.83774583      -2.12054592       0.00000000
Si       1.43862107      -1.85451876       0.48506262       0.00000000
Si      -1.67743017       0.30162564       1.73005439       0.00000000
Si       1.89625604       2.40396417       1.95310913       0.00000000
Si       1.38799664      -1.82448000      -2.90965564       0.00000000
Si      -1.92622734      -2.70916221      -1.72144767       0.00000000
Si      -2.95769385      -1.70277741       1.84975986       0.00000000
Si      -1.51778817       0.75637728      -3.56702419       0.00000000
Si       3.47103152       1.57558509      -1.06209032       0.00000000
