10
Lattice="16.28999089631971 0.0 0.0 0.0 16.28999089631971 0.0 0.0 0.0 34.28971787722196" Properties=species:S:1:pos:R:3:initial_magmoms:R:1 pbc="T T T"
Si      -1.32440958      -1.36388025      -1.36989900       0.00000000
Si       1.35487188       1.36052451      -1.35049786       0.00000000
Si      -1.35532800       1.35835794       1.35574762       0.00000000
Si       1.36062947      -1.35345465       1.35643342       0.00000000
Si      -2.59626762       0.06498081      -2.65670710       0.00000000
Si      -0.02985957       2.67827148      -2.71996138       0.00000000
Si       2.65489763       0.03894939      -2.75529010       0.00000000
Si      -2.71256193       0.00156384       2.71358692       0.00000000
Si       0.00242721      -2.71316466       2.71310686       0.00000000
Si      -2.71331127      -2.71453302      -0.00545207       0.00000000
