10
Lattice="16.28999089631971 0.0 0.0 0.0 16.28999089631971 0.0 0.0 0.0 34.28971787722196" Properties=species:S:1:pos:R:3:initial_magmoms:R:1 pbc="T T T"
Si      -1.27185804       1.42886106      -1.28680811       0.00000000
Si       1.32440958       1.36388025       1.36989900       0.00000000
Si      -1.38890169      -1.35065277       1.36444693       0.00000000
Si       1.42135137      -1.24406730      -1.59220279       0.00000000
Si      -2.05692201      -0.49215348      -2.81696160       0.00000000
Si      -0.34151985      -2.30068557      -2.74196995       0.00000000
Si       2.68306074      -2.69096139      -0.01501548       0.00000000
Si       2.67928146       2.72440476       0.01940113       0.00000000
Si       2.68503905       0.01042560       2.72633242       0.00000000
Si      -0.03150486      -2.70811476       2.72550946       0.00000000
