10
Lattice="16.28999089631971 0.0 0.0 0.0 16.28999089631971 0.0 0.0 0.0 34.28971787722196" Properties=species:S:1:pos:R:3:initial_magmoms:R:1 pbc="T T T"
Si      -0.41127363      -1.71250254      -1.55603398       0.00000000
Si      -2.18220514       0.37090701       0.79785360       0.00000000
Si       0.49629114       2.01940614      -1.25661599       0.00000000
Si       1.33059978      -0.81831186       1.91844221       0.00000000
Si      -1.57477548       0.82837908       3.01519945       0.00000000
Si       0.78190371       1.05122628       3.25457610       0.00000000
Si       1.56326985      -2.99242413      -1.13186993       0.00000000
Si      -1.25199727      -0.30237498      -3.40699398       0.00000000
Si       0.64430208       1.10737791      -3.43439148       0.00000000
Si       0.19802124      -2.94142014       2.24704076       0.00000000
