10
Lattice="16.28999089631971 0.0 0.0 0.0 16.28999089631971 0.0 0.0 0.0 34.28971787722196" Properties=species:S:1:pos:R:3:initial_magmoms:R:1 pbc="T T T"
Si      -1.35622395      -1.35741312      -1.35927947       0.00000000
Si       1.35886293       1.35806472      -1.35951949       0.00000000
Si      -1.36109466       1.36158336       1.35694776       0.00000000
Si       1.36070370      -1.36052451       1.35886799       0.00000000
Si       2.71000440       0.02230101       2.70384863       0.00000000
Si      -2.71368594       2.71451673      -0.00270889       0.00000000
Si       2.71591767       2.71288773      -0.00353184       0.00000000
Si      -2.71414206       0.00105885      -2.71622723       0.00000000
Si      -2.71528236      -2.71542897      -0.00349755       0.00000000
Si       0.00131949      -2.71450044      -2.71626152       0.00000000
