10
Lattice="16.28999089631971 0.0 0.0 0.0 16.28999089631971 0.0 0.0 0.0 34.28971787722196" Properties=species:S:1:pos:R:3:initial_magmoms:R:1 pbc="T T T"
Si      -1.80698454       1.44031293       0.22195747       0.00000000
Si       1.70219097       1.01415024      -1.23933397       0.00000000
Si       0.92264931      -0.55555416       2.08954800       0.00000000
Si      -0.30827196      -2.03286168      -1.20216389       0.00000000
Si       1.86186555      -2.63922435      -0.71271218       0.00000000
Si      -3.09762495       0.04934241       1.59094093       0.00000000
Si       2.72237570      -0.94697028      -2.07500915       0.00000000
Si       2.46707393      -2.18429352       1.48395695       0.00000000
Si       2.30617434       1.28741499       2.50263646       0.00000000
Si       0.58762917       2.53509867      -2.65570584       0.00000000
