10
Lattice="16.28999089631971 0.0 0.0 0.0 16.28999089631971 0.0 0.0 0.0 34.28971787722196" Properties=species:S:1:pos:R:3:initial_magmoms:R:1 pbc="T T T"
Si       1.70006905       1.19728242      -1.10748993       0.00000000
Si      -0.27637614       1.48224339       1.81156902       0.00000000
Si      -1.97600958      -0.22190238      -1.48591146       0.00000000
Si      -0.71526132      -2.35569690       0.46555176       0.00000000
Si      -1.10890917      -0.32663079       3.12864845       0.00000000
Si      -2.55813273      -1.56993246       1.70642876       0.00000000
Si      -0.81901233       0.23736159      -3.46086316       0.00000000
Si      -2.15011710      -2.54218482      -1.41349154       0.00000000
Si       2.80191977      -1.46137590       1.82158128       0.00000000
Si       3.49287641      -0.60027021      -1.16338220       0.00000000
