10
Lattice="16.28999089631971 0.0 0.0 0.0 16.28999089631971 0.0 0.0 0.0 34.28971787722196" Properties=species:S:1:pos:R:3:initial_magmoms:R:1 pbc="T T T"
Si      -1.35615879      -1.35635427      -1.35684489       0.00000000
Si      -1.35223290       1.35890687       1.36071963       0.00000000
Si       1.35902583       1.35802370      -1.35663916       0.00000000
Si       1.36119240      -1.35439947       1.36418290       0.00000000
Si      -2.71334385       0.00109143      -2.71358692       0.00000000
Si      -2.71309950      -2.71518462      -0.00054864       0.00000000
Si       0.00114030      -2.71425609      -2.71451274       0.00000000
Si       0.00109143       2.71561372      -2.71437558       0.00000000
Si      -2.70501966      -0.02790477       2.72510827       0.00000000
Si      -2.71482624       2.71555833      -0.00030861       0.00000000
