10
Lattice="16.28999089631971 0.0 0.0 0.0 16.28999089631971 0.0 0.0 0.0 34.28971787722196" Properties=species:S:1:pos:R:3:initial_magmoms:R:1 pbc="T T T"
Si       1.09680148       0.44245269       2.00680686       0.00000000
Si       1.93712928       0.14250492      -1.32745859       0.00000000
Si      -1.69810218       1.67268978      -0.03020926       0.00000000
Si      -0.66396411      -2.27527317      -0.48070782       0.00000000
Si      -0.69248790      -0.43864083       3.32188686       0.00000000
Si      -1.91324421      -1.50939882      -2.52993109       0.00000000
Si       2.65172597      -1.40434461       1.87132811       0.00000000
Si      -3.55643280       0.47718297       0.75488856       0.00000000
Si       1.65869082       2.81707305       1.77782000       0.00000000
Si       1.00907332      -3.12914610       1.75721186       0.00000000
