10
Lattice="16.28999089631971 0.0 0.0 0.0 16.28999089631971 0.0 0.0 0.0 34.28971787722196" Properties=species:S:1:pos:R:3:initial_magmoms:R:1 pbc="T T T"
Si       1.11456180      -1.52094843       1.41637188       0.00000000
Si      -0.64584963       1.80312381       1.39240335       0.00000000
Si       1.78928938       0.88109352      -1.31507999       0.00000000
Si      -2.05522785      -0.78332094      -1.03657875       0.00000000
Si       0.69248790       0.43864083      -3.32188686       0.00000000
Si       1.70156122      -2.69050527      -1.56467499       0.00000000
Si       3.07073735      -0.31433184       1.89642820       0.00000000
Si      -0.58762917      -2.53509867       2.65570584       0.00000000
Si       3.34421387      -0.96570378      -1.45055875       0.00000000
Si      -2.11453974       3.17006668       0.14422263       0.00000000
