10
Lattice="16.28999089631971 0.0 0.0 0.0 16.28999089631971 0.0 0.0 0.0 34.28971787722196" Properties=species:S:1:pos:R:3:initial_magmoms:R:1 pbc="T T T"
Si      -0.82261731      -1.58685777      -1.47802483       0.00000000
Si       2.22399225      -0.12584025      -0.82768567       0.00000000
Si      -0.70466142       2.03978493      -1.00832401       0.00000000
Si       0.24973384      -0.68962086       2.35258457       0.00000000
Si       2.76584652       2.07493875      -0.22744383       0.00000000
Si      -0.22409013      -0.41782221      -3.49052378       0.00000000
Si       2.04182118       0.78433092       3.01554234       0.00000000
Si       1.24532163       3.16397412      -1.64655888       0.00000000
Si      -0.03851282      -3.69937755      -0.80707754       0.00000000
Si      -1.30986980       1.58485410      -3.20499314       0.00000000
