10
Lattice="16.28999089631971 0.0 0.0 0.0 16.28999089631971 0.0 0.0 0.0 34.28971787722196" Properties=species:S:1:pos:R:3:initial_magmoms:R:1 pbc="T T T"
Si       0.54869607      -1.86953814      -1.33613389       0.00000000
Si      -2.35667919      -0.22284720      -0.23937665       0.00000000
Si       0.09140319       0.06913476       2.42346146       0.00000000
Si       1.10516247       1.79853003      -1.25109535       0.00000000
Si      -0.78190371      -1.05122628      -3.25457610       0.00000000
Si      -0.34542945       3.51688068      -0.69837907       0.00000000
Si      -2.95520637      -1.39188276       1.77312230       0.00000000
Si      -0.88726743       3.35894913       1.60458824       0.00000000
Si       2.91172347       2.48358969       0.09604555       0.00000000
Si       0.63325746       2.26991376       3.02370330       0.00000000
