10
Lattice="16.28999089631971 0.0 0.0 0.0 16.28999089631971 0.0 0.0 0.0 34.28971787722196" Properties=species:S:1:pos:R:3:initial_magmoms:R:1 pbc="T T T"
Si       1.35565380       1.35632892       1.35687918       0.00000000
Si       1.35695700      -1.35699768      -1.35756498       0.00000000
Si      -1.35707429       1.35769239      -1.35766785       0.00000000
Si      -1.35952919      -1.35984843       1.35842222       0.00000000
Si      -2.71314036       0.00008284      -2.71427271       0.00000000
Si      -0.00100998      -2.71392210      -2.71406698       0.00000000
Si       2.71303434       0.00059778      -2.71495851       0.00000000
Si       0.00340461      -2.71411758       2.71464990       0.00000000
Si       2.71446786      -2.71452483       0.00030861       0.00000000
Si       0.00167787       2.71511854      -2.71437558       0.00000000
