10
Lattice="16.28999089631971 0.0 0.0 0.0 16.28999089631971 0.0 0.0 0.0 34.28971787722196" Properties=species:S:1:pos:R:3:initial_magmoms:R:1 pbc="T T T"
Si      -1.34604270      -1.35685926      -1.37560138       0.00000000
Si       1.36759437       1.36246302      -1.37741874       0.00000000
Si       1.31259933      -1.39222485       1.42789323       0.00000000
Si      -1.49322285       1.20593241       1.45470780       0.00000000
Si      -2.70589443       2.68661196      -0.02146538       0.00000000
Si       2.70446580       2.72230335       0.00284605       0.00000000
Si      -2.72060919      -2.71438641       0.00682366       0.00000000
Si       2.73043206      -2.70586674      -0.00133730       0.00000000
Si      -2.70792580       0.00237834      -2.73916706       0.00000000
Si       0.00931788      -2.71292031      -2.73920135       0.00000000
