10
Lattice="16.28999089631971 0.0 0.0 0.0 16.28999089631971 0.0 0.0 0.0 34.28971787722196" Properties=species:S:1:pos:R:3:initial_magmoms:R:1 pbc="T T T"
Si       0.89873559       1.72501326       1.38671126       0.00000000
Si       1.49322285      -1.20593241      -1.45470780       0.00000000
Si      -1.21267158       1.48067955      -1.47617318       0.00000000
Si      -1.15173721      -1.53135774       1.49372952       0.00000000
Si      -2.67580259      -2.52118701      -0.05085168       0.00000000
Si      -2.56106778       2.78562258      -0.08414701       0.00000000
Si       0.14718015      -2.56279167      -2.83030919       0.00000000
Si       2.80582218      -2.59815726      -0.02681457       0.00000000
Si      -2.57009636       0.15477129      -2.83829869       0.00000000
Si       2.66387112       2.76897420       0.00630931       0.00000000
