10
Lattice="16.28999089631971 0.0 0.0 0.0 16.28999089631971 0.0 0.0 0.0 34.28971787722196" Properties=species:S:1:pos:R:3:initial_magmoms:R:1 pbc="T T T"
Si       1.35641943       0.15108975       1.96257310       0.00000000
Si      -1.74122344      -1.62781083       0.32695264       0.00000000
Si      -1.00959230       2.15927208       0.37711853       0.00000000
Si       1.59019722      -0.04789260      -1.93277532       0.00000000
Si       2.48267745       2.01295530       1.09445983       0.00000000
Si      -2.19888374      -1.99718658      -2.04222816       0.00000000
Si      -0.29499561       0.61242255       3.57590523       0.00000000
Si      -1.86109015       2.43271602      -2.00546956       0.00000000
Si       2.98550088       1.75982499      -1.32162933       0.00000000
Si      -3.61068569      -0.25850601       1.22386929       0.00000000
