10
Lattice="16.28999089631971 0.0 0.0 0.0 16.28999089631971 0.0 0.0 0.0 34.28971787722196" Properties=species:S:1:pos:R:3:initial_magmoms:R:1 pbc="T T T"
Si       0.43318531      -0.79156368       2.14537169       0.00000000
Si       0.82994455      -1.81928349      -1.22229197       0.00000000
Si       1.64265265       1.72480149       0.11411624       0.00000000
Si      -1.67303743       0.85387293      -2.23791969       0.00000000
Si       0.19642482      -0.51543189      -3.13483634       0.00000000
Si      -0.58699942       1.16955684       2.98104687       0.00000000
Si      -2.68801846      -2.02069305       0.56252314       0.00000000
Si      -0.87318214      -3.27262842      -0.48852588       0.00000000
Si      -3.36983641      -0.04072500      -0.76239801       0.00000000
Si      -1.70156122       2.69050527       1.56467499       0.00000000
