10
Lattice="16.28999089631971 0.0 0.0 0.0 16.28999089631971 0.0 0.0 0.0 34.28971787722196" Properties=species:S:1:pos:R:3:initial_magmoms:R:1 pbc="T T T"
Si      -1.94998305      -1.12418919       0.63823488       0.00000000
Si      -0.13470201       2.30827671       0.38078753       0.00000000
Si       1.52052489      -1.08903537       1.41911506       0.00000000
Si       0.54183798       0.15793155      -2.30296732       0.00000000
Si       3.24242676       0.15330519       0.55131039       0.00000000
Si       2.23018245       2.31448320       0.77254778       0.00000000
Si      -1.69468128       0.11313405      -2.92073122       0.00000000
Si      -2.55519143      -1.57912002      -1.55843426       0.00000000
Si       0.97867062      -3.28981437       0.81887321       0.00000000
Si      -2.11088263       2.34751932       1.65691438       0.00000000
