10
Lattice="16.28999089631971 0.0 0.0 0.0 16.28999089631971 0.0 0.0 0.0 34.28971787722196" Properties=species:S:1:pos:R:3:initial_magmoms:R:1 pbc="T T T"
Si      -0.02098152      -2.04656157       1.12079434       0.00000000
Si       0.70304382      -0.75595374      -2.12219183       0.00000000
Si       1.81939752       1.47908313       0.90939812       0.00000000
Si      -1.79280735       1.79755263       0.05589227       0.00000000
Si      -0.69095664      -0.86110569       2.98496348       0.00000000
Si       0.00783549       3.04316748       1.04233943       0.00000000
Si      -0.81748107       0.33308163      -3.54130688       0.00000000
Si      -3.49287641       0.60027021       1.16338220       0.00000000
Si       2.42494569       0.48638682      -2.98999649       0.00000000
Si      -2.06280270      -2.83089249      -1.89474800       0.00000000
