10
Lattice="16.28999089631971 0.0 0.0 0.0 16.28999089631971 0.0 0.0 0.0 34.28971787722196" Properties=species:S:1:pos:R:3:initial_magmoms:R:1 pbc="T T T"
Si      -1.36689553      -1.34092764       1.37499445       0.00000000
Si       1.34654769       1.37534419       1.37348570       0.00000000
Si      -1.35943797       1.35844983      -1.37839942       0.00000000
Si       1.47919716      -1.25942877      -1.49750825       0.00000000
Si       0.38889117       2.38976648      -2.61903846       0.00000000
Si       2.28017646       0.62861548      -2.84447569       0.00000000
Si      -0.09435168      -2.54202192      -2.82746798       0.00000000
Si       2.70578529      -2.69154783      -0.00068922       0.00000000
Si      -2.72812607      -2.68786629       0.01229287       0.00000000
Si      -0.96503589      -0.53958996      -3.67500741       0.00000000
