10
Lattice="16.28999089631971 0.0 0.0 0.0 16.28999089631971 0.0 0.0 0.0 34.28971787722196" Properties=species:S:1:pos:R:3:initial_magmoms:R:1 pbc="T T T"
Si       1.73477097      -1.56657672      -0.07286569       0.00000000
Si       0.04409703       1.70538122      -1.61508090       0.00000000
Si       0.33694236       1.14396525       2.05254937       0.00000000
Si      -1.75749878      -1.42025994      -0.79020699       0.00000000
Si      -2.03593723       1.25430819       2.31507160       0.00000000
Si       1.16413227       0.27243396      -3.21202254       0.00000000
Si       0.60851295      -3.42844227       0.79524758       0.00000000
Si       3.47363073      -0.66868821       1.12336608       0.00000000
Si       1.11094542       3.29078267       1.36953210       0.00000000
Si      -2.21583748       2.46617635      -1.71774438       0.00000000
