10
Lattice="16.28999089631971 0.0 0.0 0.0 16.28999089631971 0.0 0.0 0.0 34.28971787722196" Properties=species:S:1:pos:R:3:initial_magmoms:R:1 pbc="T T T"
Si      -1.15165480       2.16161784       0.12484893       0.00000000
Si      -1.22592091      -2.10789342      -0.31268811       0.00000000
Si       1.35877171       0.29600559      -2.06767114       0.00000000
Si       0.85149785      -0.27344394       2.38258809       0.00000000
Si      -2.04167524      -1.51676190      -2.42123262       0.00000000
Si       1.86109015      -2.43271602       2.00546956       0.00000000
Si      -0.33454406      -0.48156498      -3.66543573       0.00000000
Si      -2.99887564      -1.92534768       1.18011559       0.00000000
Si      -1.08563143      -0.41594886       3.71004668       0.00000000
Si       0.39315915       3.61299235       1.45505070       0.00000000
