10
Lattice="10.86 0.0 0.0 0.0 10.86 0.0 0.0 0.0 10.86" Properties=species:S:1:pos:R:3:initial_magmoms:R:1 pbc="T T T"
Si       1.28777880       1.04237538       1.56513234       0.00000000
Si       1.28777880      -1.67262462      -1.14986766       0.00000000
Si      -1.39894176       1.52421186      -1.41703452       0.00000000
Si      -1.42722120      -1.67262462       1.56513234       0.00000000
Si       2.53142256      -0.27024024      -2.28902736       0.00000000
Si      -2.62446018       2.35402446       0.36114930       0.00000000
Si       2.68004166       2.34518442       0.30061566       0.00000000
Si      -2.47218126      -0.17829948      -2.59762512       0.00000000
Si      -0.06972120       2.39987538       2.92263234       0.00000000
Si      -0.06972120      -3.03012462      -2.50736766       0.00000000
