10
Lattice="10.86 0.0 0.0 0.0 10.86 0.0 0.0 0.0 10.86" Properties=species:S:1:pos:R:3:initial_magmoms:R:1 pbc="T T T"
Si       1.33571484       1.26534204       1.35947652       0.00000000
Si       1.33571484      -1.44965796      -1.35552348       0.00000000
Si      -1.37928516      -1.44965796       1.35947652       0.00000000
Si      -0.03357912       2.55138324      -2.40859596       0.00000000
Si       0.04578576       2.46689244       2.77379604       0.00000000
Si       2.69321484       2.62284204       0.00197652       0.00000000
Si       2.69321484      -0.09215796      -2.71302348       0.00000000
Si       2.69321484      -0.09215796       2.71697652       0.00000000
Si       2.69321484      -2.80715796       0.00197652       0.00000000
Si      -0.02178516      -2.80715796      -2.71302348       0.00000000
