10
Lattice="10.86 0.0 0.0 0.0 10.86 0.0 0.0 0.0 10.86" Properties=species:S:1:pos:R:3:initial_magmoms:R:1 pbc="T T T"
Si       0.94703544       1.44623706      -1.30242894       0.00000000
Si      -1.38346626      -1.18532556      -1.30469868       0.00000000
Si      -1.54271730       1.45457754       1.51893390       0.00000000
Si       2.50173132       0.05229090      -2.59984056       0.00000000
Si      -0.21326868      -2.66270910      -2.59984056       0.00000000
Si       2.50173132       2.76729090       0.11515944       0.00000000
Si      -0.21326868       2.76729090      -2.59984056       0.00000000
Si      -2.92826868       0.05229090      -2.59984056       0.00000000
Si      -2.92826868      -2.66270910       0.11515944       0.00000000
Si       0.22820118      -2.90932884       2.68163808       0.00000000
