10
Lattice="16.290000149 0.0 0.0 0.0 16.290000149 0.0 0.0 0.0 29.1751946751" Properties=species:S:1:pos:R:3:initial_magmoms:R:1 pbc="T T T"
Si      -0.67468294       2.05144696       0.77037102       0.00000000
Si       2.05280066      -0.61781129       0.88896818       0.00000000
Si      -1.24380667      -1.78489695       0.84249210       0.00000000
Si      -0.63513082      -0.67346119      -2.14700258       0.00000000
Si      -0.67442230      -2.81906760      -1.16645346       0.00000000
H        0.69815683       2.31396031      -2.14253877       0.00000000
Si      -1.27780390       1.52943390       2.95498042       0.00000000
Si      -3.53131365       0.79910433      -0.76640319       0.00000000
Si       1.54349380      -1.87069638       2.82199988       0.00000000
Si       1.08978472       3.53834930       0.43438947       0.00000000
