10
Lattice="16.290000149 0.0 0.0 0.0 16.290000149 0.0 0.0 0.0 29.1751946751" Properties=species:S:1:pos:R:3:initial_magmoms:R:1 pbc="T T T"
Si      -1.33200073       1.36854083      -1.36995044       0.00000000
Si       1.37140136       1.37162779       1.32863837       0.00000000
Si       1.37092569      -1.33897285      -1.37928650       0.00000000
Si      -1.37984446      -1.32703228       1.38862257       0.00000000
Si      -2.63751392      -2.69386103      -0.06637357       0.00000000
Si       0.05692181      -2.68913693       2.66570836       0.00000000
Si      -0.02964780       2.70855461       2.67206855       0.00000000
Si      -2.70531290       2.70798446      -0.00586421       0.00000000
Si      -2.66287745       0.01348812      -2.75335065       0.00000000
Si       2.77863420       0.03034827       2.65800611       0.00000000
