10
Lattice="16.290000149 0.0 0.0 0.0 16.290000149 0.0 0.0 0.0 29.1751946751" Properties=species:S:1:pos:R:3:initial_magmoms:R:1 pbc="T T T"
Si       1.34136911      -1.34115571       1.37053395       0.00000000
Si      -1.25371115       1.37668420       1.42217404       0.00000000
Si      -1.38202569      -1.36352188      -1.32557497       0.00000000
Si       1.34578370       1.37213929      -1.35396243       0.00000000
Si       2.64997740       0.12023649       2.65940652       0.00000000
Si       0.01902346      -2.70044871      -2.66900516       0.00000000
Si      -2.68503023       0.02124216      -2.69581716       0.00000000
Si      -2.66277809       2.72266175       0.08475394       0.00000000
Si      -0.06762305      -2.68152299       2.70964621       0.00000000
Si       2.72404803       0.02441871      -2.70842085       0.00000000
