10
Lattice="16.290000149 0.0 0.0 0.0 16.290000149 0.0 0.0 0.0 29.1751946751" Properties=species:S:1:pos:R:3:initial_magmoms:R:1 pbc="T T T"
Si       1.38028429       1.31691619      -1.36414458       0.00000000
Si      -1.37270944      -1.32625036      -1.36396953       0.00000000
Si       1.35495334      -1.37111302       1.33838288       0.00000000
Si      -1.37000530       1.37800369       1.32254075       0.00000000
Si      -0.05207913       2.63697635      -2.64694871       0.00000000
Si       0.04735503      -2.65597049      -2.66527073       0.00000000
Si       2.72463284      -0.00959481       2.66573754       0.00000000
Si      -2.73064385       0.01596420       2.66649609       0.00000000
Si      -0.01617597       2.73149094       2.68300925       0.00000000
Si      -0.00166158      -2.72629442       2.69587551       0.00000000
