10
Lattice="16.290000149 0.0 0.0 0.0 16.290000149 0.0 0.0 0.0 29.1751946751" Properties=species:S:1:pos:R:3:initial_magmoms:R:1 pbc="T T T"
Si      -1.34653141      -1.35741313      -1.36198561       0.00000000
Si      -1.37011933       1.36317979       1.33607804       0.00000000
Si       1.34548885      -1.35948196       1.36843333       0.00000000
Si       1.35187453       1.37565793      -1.34593926       0.00000000
Si      -0.00605988       2.71787249       2.68452636       0.00000000
Si      -2.70756092      -2.70184313       0.00971534       0.00000000
Si      -2.69814530       0.01044189      -2.71831124       0.00000000
Si       0.03220533      -2.70560612      -2.71227197       0.00000000
Si       2.77193901       0.04593780      -2.64724046       0.00000000
Si       2.71660187      -2.70511742       0.03025468       0.00000000
