10
Lattice="16.290000149 0.0 0.0 0.0 16.290000149 0.0 0.0 0.0 29.1751946751" Properties=species:S:1:pos:R:3:initial_magmoms:R:1 pbc="T T T"
H       -0.90222166       0.74210725       0.97687304       0.00000000
Si       1.15307137       1.63851338      -1.18112858       0.00000000
Si       1.40212560      -1.16931250       1.46118127       0.00000000
Si      -1.59246154      -1.12941829      -1.34065855       0.00000000
Si      -0.61553395       2.79174765      -2.20905822       0.00000000
Si      -1.98031016       2.45464238       1.76712462       0.00000000
Si       2.61574560       0.43005600      -2.52307084       0.00000000
Si      -0.05709645      -2.34869222       2.87755529       0.00000000
Si      -2.22759236       2.96899914      -0.53119277       0.00000000
Si       2.86412249      -2.44714898       0.11605892       0.00000000
