10
Lattice="16.290000149 0.0 0.0 0.0 16.290000149 0.0 0.0 0.0 29.1751946751" Properties=species:S:1:pos:R:3:initial_magmoms:R:1 pbc="T T T"
Si      -1.36715455      -1.34910523      -1.33823700       0.00000000
Si      -1.36669843       1.34667802       1.34941110       0.00000000
Si       1.32413266      -1.38450340       1.35953490       0.00000000
Si       1.38528777       1.33064866      -1.36860838       0.00000000
Si       0.07610688      -2.68008621      -2.62072021       0.00000000
Si       2.69405163      -0.01488906       2.68370946       0.00000000
Si      -0.00847080       2.71243163       2.67968328       0.00000000
Si      -2.69487101       2.71433756      -0.02590757       0.00000000
Si       0.05703129       2.74157445      -2.67854545       0.00000000
Si       2.72031599       2.70754463      -0.02479892       0.00000000
