10
Lattice="16.290000149 0.0 0.0 0.0 16.290000149 0.0 0.0 0.0 29.1751946751" Properties=species:S:1:pos:R:3:initial_magmoms:R:1 pbc="T T T"
Si       1.37471311       1.34143264      -1.34375112       0.00000000
Si       1.36127386      -1.39496158       1.30451048       0.00000000
Si      -1.35382933      -1.35348724      -1.36046850       0.00000000
Si      -1.35278677       1.36894645       1.35110327       0.00000000
Si       0.00726534       2.69048900      -2.68534327       0.00000000
Si       2.78140350      -0.08482203       2.61751094       0.00000000
Si      -2.74159074       0.00977400       2.66524156       0.00000000
Si       0.01210347      -2.75261907       2.65794776       0.00000000
Si       0.01617597      -2.73149094      -2.68300925       0.00000000
Si       0.02484225       2.73453716       2.68688955       0.00000000
