10
Lattice="16.290000149 0.0 0.0 0.0 16.290000149 0.0 0.0 0.0 29.1751946751" Properties=species:S:1:pos:R:3:initial_magmoms:R:1 pbc="T T T"
Si       0.60312097       0.52201305      -2.18460940       0.00000000
Si      -2.29866563      -0.05220945       0.46169746       0.00000000
Si       0.75989593       2.05149746       0.87723975       0.00000000
Si       1.22653927      -1.86414128       0.95332866       0.00000000
Si       1.69012010       1.01343349       2.71402248       0.00000000
Si       3.02871828      -0.52926210       1.56043529       0.00000000
Si       1.27780390      -1.52943390      -2.95498042       0.00000000
Si      -0.24488757      -0.01870092       3.61924125       0.00000000
Si      -2.44858250       0.36113301       2.81741937       0.00000000
Si      -3.12398220       2.05407128      -0.29560307       0.00000000
