10
Lattice="16.290000149 0.0 0.0 0.0 16.290000149 0.0 0.0 0.0 29.1751946751" Properties=species:S:1:pos:R:3:initial_magmoms:R:1 pbc="T T T"
Si      -1.25050186       1.11134128      -1.60209747       0.00000000
Si      -1.89763841      -0.01830344       1.33622392       0.00000000
Si       1.57327192       1.69079287       0.43456452       0.00000000
Si       0.43223886      -2.29167233       0.29571977       0.00000000
H        1.79585849       0.54187056      -2.35551769       0.00000000
H       -2.07700760       1.36916311       1.94712332       0.00000000
Si      -1.06574068      -1.26429460       3.04841690       0.00000000
Si       2.04429728      -2.46892383      -1.38214567       0.00000000
Si       0.83939113       2.31981494       2.61546984       0.00000000
Si      -2.58910004       2.65403687      -0.44851027       0.00000000
