10
Lattice="16.290000149 0.0 0.0 0.0 16.290000149 0.0 0.0 0.0 29.1751946751" Properties=species:S:1:pos:R:3:initial_magmoms:R:1 pbc="T T T"
Si       1.35822763       1.36575361       1.33027218       0.00000000
Si       1.36669843      -1.34667802      -1.34941110       0.00000000
Si      -1.32817258       1.36765954      -1.37531868       0.00000000
Si      -1.35703846      -1.37707516       1.35524614       0.00000000
Si       2.69397506      -0.01013238       2.68268833       0.00000000
Si      -0.00045612      -2.69578325      -2.68764811       0.00000000
Si      -2.70601337       0.00356751      -2.68000421       0.00000000
Si      -2.71433756       2.68118741      -0.01703831       0.00000000
Si       0.01018125       2.71187777       2.69771355       0.00000000
Si       2.69705387       2.72044631      -0.05234030       0.00000000
