10
Lattice="16.290000149 0.0 0.0 0.0 16.290000149 0.0 0.0 0.0 29.1751946751" Properties=species:S:1:pos:R:3:initial_magmoms:R:1 pbc="T T T"
Si       1.25371115      -1.37668420      -1.42217404       0.00000000
Si       1.35534121       1.39761685       1.33044723       0.00000000
Si      -1.32370733      -1.33063237       1.43442762       0.00000000
Si      -1.40906693       1.34597755      -1.33742010       0.00000000
Si       2.59508027      -2.71783991      -0.05164009       0.00000000
Si      -0.08881129       2.62971101       2.70141880       0.00000000
Si       2.59949486      -0.00454491      -2.77613647       0.00000000
Si      -2.74321794      -2.64108143       0.05166927       0.00000000
Si      -0.05331538       2.69141753      -2.73079822       0.00000000
Si      -2.79290244       2.69351894       0.02237737       0.00000000
