10
Lattice="16.290000149 0.0 0.0 0.0 16.290000149 0.0 0.0 0.0 29.1751946751" Properties=species:S:1:pos:R:3:initial_magmoms:R:1 pbc="T T T"
Si       1.41659470      -1.34440312       1.25298417       0.00000000
Si      -1.49854969       1.23466961       1.28031549       0.00000000
Si      -1.03848751      -1.85580406      -0.94967301       0.00000000
Si       0.86664430       1.72830548      -1.38262006       0.00000000
H       -2.04975443       0.77765366      -2.05096659       0.00000000
Si      -1.87038524      -0.60981290      -2.66186599       0.00000000
Si      -0.07990245       2.66467098       2.51506808       0.00000000
Si       2.64890063      -2.54376334      -0.34441609       0.00000000
Si      -0.83854405       3.39698794      -1.25497975       0.00000000
Si      -0.04525362      -2.78084801       2.46707488       0.00000000
