10
Lattice="16.290000149 0.0 0.0 0.0 16.290000149 0.0 0.0 0.0 29.1751946751" Properties=species:S:1:pos:R:3:initial_magmoms:R:1 pbc="T T T"
Si      -1.34872537      -1.35340579       1.35667573       0.00000000
Si      -1.36780096       1.35790183      -1.33963741       0.00000000
Si       1.33136084      -1.34814412      -1.39086906       0.00000000
Si       1.31427426       1.36531378       1.39425338       0.00000000
Si       0.03134536       2.69255783      -2.67361484       0.00000000
Si       2.68187679      -2.70801704      -0.03200519       0.00000000
Si      -2.69416535       0.01042560       2.70716631       0.00000000
Si       2.69021727       2.71463078       0.04492980       0.00000000
Si      -2.71946372      -2.70154991       0.00265494       0.00000000
Si       2.70300492       0.01418859       2.72289174       0.00000000
