10
Lattice="16.290000149 0.0 0.0 0.0 16.290000149 0.0 0.0 0.0 29.1751946751" Properties=species:S:1:pos:R:3:initial_magmoms:R:1 pbc="T T T"
Si      -1.27794400       1.37384486      -1.38709670       0.00000000
Si       1.30015378       1.32698504       1.42629649       0.00000000
Si      -1.41202047      -1.39004200       1.25673026       0.00000000
Si       1.33064866      -1.31445640      -1.41868760       0.00000000
Si       2.64733679       2.65702934       0.08093491       0.00000000
Si      -0.04689891      -2.73856080       2.62822699       0.00000000
Si       2.65903301      -2.71003700      -0.04964451       0.00000000
Si      -0.09598068      -2.67108761      -2.70068767       0.00000000
Si      -2.71018085       2.68037291      -0.03475641       0.00000000
Si      -2.69410718      -0.04566087       2.71309763       0.00000000
