10
Lattice="16.290000149 0.0 0.0 0.0 16.290000149 0.0 0.0 0.0 29.1751946751" Properties=species:S:1:pos:R:3:initial_magmoms:R:1 pbc="T T T"
Si      -0.53242236      -0.25694217       1.38675535       0.00000000
H       -0.67390102      -0.91999405      -1.61680176       0.00000000
H       -1.59918931       0.83935855      -1.17287200       0.00000000
H        1.27462735       1.75371626       0.43021742       0.00000000
Si       0.45742320      -0.98614774      -2.62037011       0.00000000
Si       2.17663724       1.82659772      -0.79102705       0.00000000
Si       2.52050285      -0.29372499      -1.72031535       0.00000000
Si       1.15859368      -1.18498348       2.69850128       0.00000000
Si      -2.33021936      -1.85210786       1.26731211       0.00000000
Si      -1.38337939       1.61828119       2.50078099       0.00000000
