10
Lattice="16.290000149 0.0 0.0 0.0 16.290000149 0.0 0.0 0.0 29.1751946751" Properties=species:S:1:pos:R:3:initial_magmoms:R:1 pbc="T T T"
Si      -1.31098663       1.42298038       1.29949701       0.00000000
Si       1.26268678       1.48255291      -1.32895929       0.00000000
Si       1.44998920      -1.42065091       1.21532191       0.00000000
Si      -1.37735209      -1.02646549      -1.63150606       0.00000000
Si       0.33700752      -1.47575998      -3.15658101       0.00000000
Si      -0.42832926       2.41059422      -2.64070522       0.00000000
Si       2.23477625       0.02419065      -2.83687923       0.00000000
Si      -2.22612626       0.81542854      -2.76014847       0.00000000
Si       2.40844394      -2.69208542      -0.53825317       0.00000000
Si      -2.61008156      -0.06193458       2.57366062       0.00000000
