10
Lattice="16.290000149 0.0 0.0 0.0 16.290000149 0.0 0.0 0.0 29.1751946751" Properties=species:S:1:pos:R:3:initial_magmoms:R:1 pbc="T T T"
Si       1.33038151       1.36078516       1.37785692       0.00000000
Si      -1.29585322      -1.31357674       1.46981713       0.00000000
Si      -1.38712609       1.36107838      -1.35596969       0.00000000
Si       1.40108499      -1.34819299      -1.36953615       0.00000000
Si      -0.10691127      -2.73310365      -2.53439344       0.00000000
Si       0.07209596       2.54045810      -2.77234370       0.00000000
Si      -2.68609070      -2.65865834       0.19556133       0.00000000
Si       2.67615380       2.69016320      -0.00350686       0.00000000
Si       2.69869916       0.01091430       2.74124294       0.00000000
Si       2.75812509      -2.68853420       0.01223899       0.00000000
