10
Lattice="16.290000149 0.0 0.0 0.0 16.290000149 0.0 0.0 0.0 29.1751946751" Properties=species:S:1:pos:R:3:initial_magmoms:R:1 pbc="T T T"
Si      -1.26637321       1.42693885       1.32309245       0.00000000
Si       1.63316537      -1.18552105       1.21016665       0.00000000
Si       0.68389819       1.76998997      -1.49554965       0.00000000
Si      -1.33146805      -1.97671007      -0.49244811       0.00000000
Si       0.29535562      -2.59179278       2.56064849       0.00000000
Si       0.17965590       0.87612508      -3.58455194       0.00000000
Si      -2.58659627       0.10112832       2.68903101       0.00000000
Si      -0.40065255      -2.77841428      -2.49412904       0.00000000
Si       0.24162306       2.81184951       2.48794974       0.00000000
Si      -2.40506051       2.92890945      -0.06018843       0.00000000
