10
Lattice="16.290000149 0.0 0.0 0.0 16.290000149 0.0 0.0 0.0 29.1751946751" Properties=species:S:1:pos:R:3:initial_magmoms:R:1 pbc="T T T"
Si       0.59548096       0.08219934       1.40484397       0.00000000
H        2.11221029      -0.76887172      -0.29315236       0.00000000
Si       1.39761685      -0.84015676      -1.62103217       0.00000000
Si      -0.46986876      -2.30027834      -1.76565361       0.00000000
Si      -1.11887866       0.53149383       2.92991893       0.00000000
H       -3.11420820      -0.60103585       0.78224532       0.00000000
Si       1.07103493      -1.94922884       2.46422447       0.00000000
Si       1.04076811       1.10441314      -2.99623414       0.00000000
H       -1.65364679      -2.65166993       1.25260781       0.00000000
Si       2.49324968       1.58214997       1.72454576       0.00000000
