10
Lattice="16.290000149 0.0 0.0 0.0 16.290000149 0.0 0.0 0.0 29.1751946751" Properties=species:S:1:pos:R:3:initial_magmoms:R:1 pbc="T T T"
Si       1.83466127       1.02071512      -0.93905032       0.00000000
Si       1.40584330      -1.36461331       1.25368437       0.00000000
Si      -1.32085837       1.48826756       1.20856202       0.00000000
Si      -1.30350952      -1.18358254      -1.55389275       0.00000000
Si       1.00276354       2.26670628      -2.65124330       0.00000000
Si      -2.67152744       0.09353718       2.51833862       0.00000000
Si      -2.62532900      -2.58615155      -0.21104169       0.00000000
Si       0.04930983      -2.70462872       2.56837408       0.00000000
Si       2.74481616      -2.51805935      -0.30275391       0.00000000
Si       2.82789516       0.09567117       2.47769757       0.00000000
