10
Lattice="16.290000149 0.0 0.0 0.0 16.290000149 0.0 0.0 0.0 29.1751946751" Properties=species:S:1:pos:R:3:initial_magmoms:R:1 pbc="T T T"
Si       0.13699890      -0.79692310      -1.28254156       0.00000000
H       -1.46056141       2.05063409      -0.47036249       0.00000000
Si       0.85638160      -0.19420938       2.49086142       0.00000000
Si      -2.06374754      -0.71460973      -2.06472853       0.00000000
H       -1.35153244      -2.68636763       0.39091843       0.00000000
Si       2.72468171       0.70244110       1.21161666       0.00000000
Si      -0.85665853       1.44205597       2.59352893       0.00000000
Si       0.96231547      -2.90320383      -0.52524103       0.00000000
Si       0.81239860      -2.48986136       1.83048089       0.00000000
Si       1.18377802       0.35139159      -3.01826141       0.00000000
