10
Lattice="16.290000149 0.0 0.0 0.0 16.290000149 0.0 0.0 0.0 29.1751946751" Properties=species:S:1:pos:R:3:initial_magmoms:R:1 pbc="T T T"
Si       1.35279492       1.35207001       1.35909727       0.00000000
Si       1.38996055      -1.35957970      -1.32186972       0.00000000
Si      -1.33882624      -1.35469270       1.38261248       0.00000000
Si      -1.34418565       1.38329794      -1.35250367       0.00000000
Si      -2.68962563       2.71257824       0.03419333       0.00000000
Si       0.05493232      -2.73647567      -2.66567919       0.00000000
Si      -2.70001865       0.03349224      -2.70617436       0.00000000
Si       2.69146640      -0.00358380       2.72484648       0.00000000
Si       2.71171487       2.70611111      -0.00046680       0.00000000
Si      -2.69705387      -2.72044631       0.05234030       0.00000000
