10
Lattice="16.290000149 0.0 0.0 0.0 16.290000149 0.0 0.0 0.0 29.1751946751" Properties=species:S:1:pos:R:3:initial_magmoms:R:1 pbc="T T T"
Si      -0.64896103       0.84406636      -1.07458077       0.00000000
Si       2.15129000       0.25363530       1.31323386       0.00000000
Si       2.25650711      -1.47768220      -0.49323584       0.00000000
Si       0.39162789       1.22438899       2.57692824       0.00000000
Si      -2.07951626       2.06764085       0.21662582       0.00000000
Si       0.41635611      -2.66329285      -1.49490780       0.00000000
Si      -2.08971380      -0.48739680      -2.28269641       0.00000000
Si      -0.69815683      -2.31396031       2.14253877       0.00000000
Si      -1.37283976      -0.26251335       2.91290979       0.00000000
Si       0.85385665       2.20247318      -2.23966299       0.00000000
