10
Lattice="16.290000149 0.0 0.0 0.0 16.290000149 0.0 0.0 0.0 29.1751946751" Properties=species:S:1:pos:R:3:initial_magmoms:R:1 pbc="T T T"
Si       0.88381396      -0.85151089       0.88774282       0.00000000
H       -1.89957692      -0.42700977      -1.23971237       0.00000000
Si       0.89186122       0.98098381      -2.07120542       0.00000000
Si      -0.99756703      -0.35412831      -2.46095685       0.00000000
Si      -0.70289722       2.51697281      -0.98489622       0.00000000
Si      -1.44660088       2.17294267       1.27335137       0.00000000
Si       1.91391212      -2.33917886      -0.58327049       0.00000000
Si      -0.51119649      -2.08220411       2.31446819       0.00000000
Si       2.78202252       0.44883837       1.52002764       0.00000000
Si       2.82981738      -0.50433840      -1.75153281       0.00000000
