10
Lattice="16.290000149 0.0 0.0 0.0 16.290000149 0.0 0.0 0.0 29.1751946751" Properties=species:S:1:pos:R:3:initial_magmoms:R:1 pbc="T T T"
Si      -1.36720342      -1.34974054       1.35074733       0.00000000
Si       1.30399822       1.29451744       1.47587974       0.00000000
Si      -1.37064061       1.41299461      -1.30353603       0.00000000
Si       1.36495540      -1.34688979      -1.38960577       0.00000000
Si       2.66053169       2.63453285       0.16119003       0.00000000
Si       2.71261082      -2.70971120      -0.01321636       0.00000000
Si      -0.01663209      -2.66870927       2.75885892       0.00000000
Si      -2.71042796      -2.71901279      -0.01210771       0.00000000
Si      -2.73090449       0.02287116       2.69977915       0.00000000
Si      -2.78397732       0.11836314      -2.64724163       0.00000000
