10
Lattice="16.290000149 0.0 0.0 0.0 16.290000149 0.0 0.0 0.0 29.1751946751" Properties=species:S:1:pos:R:3:initial_magmoms:R:1 pbc="T T T"
Si       1.38261376      -1.35500221      -1.32462678       0.00000000
Si       1.33641532       1.32468652       1.40475353       0.00000000
Si      -1.35358498      -1.39743766       1.31979536       0.00000000
Si      -1.32838435       1.39558060      -1.36904309       0.00000000
Si      -0.03072294      -2.64963368      -2.66833238       0.00000000
Si      -2.65903301       2.71003700       0.04964451       0.00000000
Si       2.70443324       0.04756680      -2.66747784       0.00000000
Si      -2.70593192      -0.02852379       2.67787150       0.00000000
Si      -2.75501370       0.03894939      -2.65104316       0.00000000
Si       2.68708439       2.71941690       0.09497693       0.00000000
