10
Lattice="16.290000149 0.0 0.0 0.0 16.290000149 0.0 0.0 0.0 29.1751946751" Properties=species:S:1:pos:R:3:initial_magmoms:R:1 pbc="T T T"
Si       1.40861260      -1.18296352      -1.46897105       0.00000000
Si      -1.31344316      -1.43092990       1.34591008       0.00000000
Si      -1.83568265       1.18425858      -0.93693220       0.00000000
Si       1.44901180       1.43280162       1.28210393       0.00000000
H        0.81391357       2.60838740      -1.43043062       0.00000000
Si      -0.46174005       2.57528612      -2.25967718       0.00000000
Si      -2.76649815       1.98596279       1.06474873       0.00000000
Si      -2.48475754       0.15861117       2.63379070       0.00000000
Si      -0.13167207      -2.49724073      -2.65797694       0.00000000
Si       2.79827994      -2.49979826      -0.03921146       0.00000000
