10
Lattice="16.290000149 0.0 0.0 0.0 16.290000149 0.0 0.0 0.0 29.1751946751" Properties=species:S:1:pos:R:3:initial_magmoms:R:1 pbc="T T T"
Si      -0.84877417       1.84189403      -1.12864241       0.00000000
Si       1.71435962      -0.44929449      -1.52507495       0.00000000
Si       1.37735209       1.02646549       1.63150606       0.00000000
Si      -1.39142665      -1.74110780       0.91621781       0.00000000
H       -1.99532954      -1.13252968      -2.14767361       0.00000000
H        1.11887866      -0.53149383      -2.92991893       0.00000000
Si       2.18991359      -2.48072267      -0.46569446       0.00000000
Si       0.32161347      -3.37737315       0.81355030       0.00000000
H       -0.53476812      -3.18316377      -1.67731112       0.00000000
Si       2.64003887       2.50901840       0.30254677       0.00000000
