10
Lattice="16.290000149 0.0 0.0 0.0 16.290000149 0.0 0.0 0.0 29.1751946751" Properties=species:S:1:pos:R:3:initial_magmoms:R:1 pbc="T T T"
Si      -1.36063855      -1.36203949       1.34395534       0.00000000
Si       1.35382933       1.35348724       1.36046850       0.00000000
Si       1.37000530      -1.37800369      -1.32254075       0.00000000
Si      -1.38230425       1.33791400      -1.35142419       0.00000000
Si      -0.01874979       2.69956253      -2.68085029       0.00000000
Si       2.71510319      -0.04147434       2.66497898       0.00000000
Si      -0.00270414      -2.70425405      -2.68651028       0.00000000
Si      -2.73577521       0.00179190       2.67656153       0.00000000
Si       2.72854245       2.69491988       0.01671739       0.00000000
Si      -0.01060479      -2.73926127       2.68569337       0.00000000
