10
Lattice="16.290000149 0.0 0.0 0.0 16.290000149 0.0 0.0 0.0 29.1751946751" Properties=species:S:1:pos:R:3:initial_magmoms:R:1 pbc="T T T"
H        0.53242236       0.25694217      -1.38675535       0.00000000
Si       1.69101605      -0.92804131       1.31174593       0.00000000
Si      -0.85095703       1.87522337       1.11402563       0.00000000
Si      -1.79779700      -1.59516568      -0.11944325       0.00000000
H        1.80704972       2.01065843      -0.95653793       0.00000000
H       -1.06676695       1.09630072      -2.55962735       0.00000000
H       -0.14147865      -0.66305188      -3.00355712       0.00000000
Si      -2.16127577       0.50767785       2.60056015       0.00000000
Si       2.66310551      -2.38640357      -0.19617401       0.00000000
Si       0.42832926      -2.41059422       2.64070522       0.00000000
