10
Lattice="16.290000149 0.0 0.0 0.0 16.290000149 0.0 0.0 0.0 29.1751946751" Properties=species:S:1:pos:R:3:initial_magmoms:R:1 pbc="T T T"
H       -0.65246338       0.42051006      -0.04530908       0.00000000
Si       1.98244415       0.61680457       1.08047416       0.00000000
H       -1.79414804      -1.21287196       1.08981022       0.00000000
Si       0.74591911      -0.55043911      -2.50194799       0.00000000
Si       0.20432547       2.16692840       1.71211712       0.00000000
Si      -2.50874147      -1.28415700      -0.23806959       0.00000000
Si      -0.91051327      -2.07826193      -1.76795845       0.00000000
Si       2.61356762       0.28302246      -1.24837740       0.00000000
Si       1.22344417      -1.25343406       2.36196541       0.00000000
Si      -0.74316610       1.24721128      -2.61797774       0.00000000
