10
Lattice="16.290000149 0.0 0.0 0.0 16.290000149 0.0 0.0 0.0 29.1751946751" Properties=species:S:1:pos:R:3:initial_magmoms:R:1 pbc="T T T"
Si       1.32085837      -1.48826756      -1.20856202       0.00000000
Si       1.36014985       1.28300681       1.40952659       0.00000000
Si      -1.35066907      -1.39473038       1.30977660       0.00000000
Si      -1.38284182       1.32466523      -1.36449176       0.00000000
Si       2.69545745       2.62292123       0.08237616       0.00000000
Si      -2.69878061       2.64764945       0.03560249       0.00000000
Si      -2.67566510      -0.04357261       2.69355609       0.00000000
Si       0.02906136       2.70244901       2.69483979       0.00000000
Si       0.03349224      -2.75230641       2.64845123       0.00000000
Si      -2.68708439      -2.71941690      -0.09497693       0.00000000
