10
Lattice="16.290000149 0.0 0.0 0.0 16.290000149 0.0 0.0 0.0 29.1751946751" Properties=species:S:1:pos:R:3:initial_magmoms:R:1 pbc="T T T"
Si       0.64742977       0.82619623      -1.07662303       0.00000000
H       -1.43715268      -0.90865621      -0.54709325       0.00000000
H       -0.62550343      -1.65718172       1.10565235       0.00000000
Si      -2.24802002       0.95513158       1.63305235       0.00000000
Si       0.56135341      -2.16766145       1.90455671       0.00000000
Si       1.92334403       2.28929888       0.21747190       0.00000000
Si       1.88551865      -0.53872659      -2.49471255       0.00000000
Si      -2.53162892       1.84603169      -0.60736920       0.00000000
Si      -0.92965402       1.91544338      -2.39817183       0.00000000
Si      -2.28167516      -1.84226870      -1.35752181       0.00000000
