10
Lattice="16.290000149 0.0 0.0 0.0 16.290000149 0.0 0.0 0.0 29.1751946751" Properties=species:S:1:pos:R:3:initial_magmoms:R:1 pbc="T T T"
Si       1.46267423      -1.20845737      -1.34194225       0.00000000
Si      -1.15307137      -1.63851338       1.18112858       0.00000000
Si      -1.76860532       1.15323427      -1.02792963       0.00000000
Si       1.45800714       1.38807091       1.34588091       0.00000000
H       -2.05529303      -0.89640613       2.15800162       0.00000000
Si      -3.38066373       1.33048576       0.64993581       0.00000000
Si       2.63977823       0.32176008      -2.65800611       0.00000000
Si       2.90066259      -2.39274038       0.10470977       0.00000000
Si      -0.93872755       3.08306498      -2.04007549       0.00000000
Si       0.24905423      -2.80782588       2.64230986       0.00000000
