10
Lattice="16.290000149 0.0 0.0 0.0 16.290000149 0.0 0.0 0.0 29.1751946751" Properties=species:S:1:pos:R:3:initial_magmoms:R:1 pbc="T T T"
Si       1.36409855       1.32981787       1.37855712       0.00000000
Si       1.35581020      -1.38735415      -1.32968867       0.00000000
Si      -1.34128603      -1.35286822       1.38538412       0.00000000
Si      -1.34734591       1.38574144      -1.36148963       0.00000000
Si      -2.69208542       2.68749164       0.06275584       0.00000000
Si       2.71129133       2.67761990       0.01094070       0.00000000
Si      -2.69711903      -2.70267392       0.03171344       0.00000000
Si       2.70158249      -0.05797611      -2.71105245       0.00000000
Si      -2.69329088       0.05203026      -2.74951411       0.00000000
Si       0.03273770       2.67796199       2.76942618       0.00000000
