10
Lattice="16.290000149 0.0 0.0 0.0 16.290000149 0.0 0.0 0.0 29.1751946751" Properties=species:S:1:pos:R:3:initial_magmoms:R:1 pbc="T T T"
Si       1.54422685       0.71917093       1.60040530       0.00000000
Si      -1.22023504      -1.31857777       1.50255170       0.00000000
Si       0.58494133      -1.08400177      -2.04879887       0.00000000
Si      -1.49752342       1.86197960      -0.35293233       0.00000000
H        1.82612531      -1.88804848       0.74913147       0.00000000
H        3.13333266       0.32760819      -1.03262684       0.00000000
Si      -1.88136470       1.21959973      -2.57847453       0.00000000
Si       0.30372705       2.56577276       2.26825469       0.00000000
Si       3.17055531       1.39106827       0.03909476       0.00000000
Si      -2.55883322       0.22411782       2.65613890       0.00000000
