10
Lattice="16.290000149 0.0 0.0 0.0 16.290000149 0.0 0.0 0.0 29.1751946751" Properties=species:S:1:pos:R:3:initial_magmoms:R:1 pbc="T T T"
Si       1.32022306       1.32581053      -1.36593856       0.00000000
Si      -1.25895637       1.40025583       1.36401621       0.00000000
Si      -1.72333541      -0.94082896      -1.27651280       0.00000000
Si       1.44971504      -1.38639304       1.22395777       0.00000000
Si      -3.42852375       0.72785350      -1.14887249       0.00000000
Si      -2.57256569       2.66450645      -0.10876513       0.00000000
Si      -2.58997970      -2.66913444       0.10610727       0.00000000
Si       2.58659627      -0.10112832      -2.68903101       0.00000000
Si      -2.66988215      -0.00446346       2.62117535       0.00000000
Si       2.81101709       0.00895950       2.54193552       0.00000000
