10
Lattice="16.290000149 0.0 0.0 0.0 16.290000149 0.0 0.0 0.0 29.1751946751" Properties=species:S:1:pos:R:3:initial_magmoms:R:1 pbc="T T T"
Si       1.34719279       1.34780203      -1.36761643       0.00000000
Si       1.35051595      -1.35987292       1.35886387       0.00000000
Si      -1.33136084       1.34814412       1.39086906       0.00000000
Si      -1.36409855      -1.32981787      -1.37855712       0.00000000
Si       2.67741791       2.69285105       0.04726382       0.00000000
Si      -2.70538458      -2.68268609       0.00682700       0.00000000
Si      -2.69916180       2.70604595       0.05123164       0.00000000
Si       2.69129699       0.00135207       2.72414628       0.00000000
Si       2.69953973      -0.02111184      -2.72569256       0.00000000
Si      -0.00828835      -2.71717202      -2.70824580       0.00000000
