10
Lattice="16.290000149 0.0 0.0 0.0 16.290000149 0.0 0.0 0.0 29.1751946751" Properties=species:S:1:pos:R:3:initial_magmoms:R:1 pbc="T T T"
Si      -1.38611611      -1.27513234      -1.37775481       0.00000000
Si       1.20135493      -1.39821958       1.44075864       0.00000000
Si      -1.42061833       1.38189700       1.28180343       0.00000000
Si       1.87543514       0.80202187      -1.19292470       0.00000000
Si       2.51729372      -2.72120380       0.04066439       0.00000000
Si       2.63000423       0.00674406       2.68161468       0.00000000
Si       2.68442912       2.66341502      -0.01583921       0.00000000
Si       3.50883345      -0.93287944      -1.10685437       0.00000000
Si      -0.10034640       2.72279207       2.67557541       0.00000000
Si      -2.72392586      -2.68140407      -0.02727297       0.00000000
