10
Lattice="16.290000149 0.0 0.0 0.0 16.290000149 0.0 0.0 0.0 29.1751946751" Properties=species:S:1:pos:R:3:initial_magmoms:R:1 pbc="T T T"
Si      -1.36130204      -1.39535254      -1.31797775       0.00000000
Si       1.29272717      -1.35365014       1.43197691       0.00000000
Si      -1.35147950       1.32545215       1.40627356       0.00000000
Si       1.37424233       1.36142047      -1.36124165       0.00000000
Si      -2.66066039      -2.68528272       0.15416173       0.00000000
Si      -2.81101709      -0.00895950      -2.54193552       0.00000000
Si       0.07093481      -2.70188060      -2.67031804       0.00000000
Si       2.69451426       2.70231554       0.03253034       0.00000000
Si       2.64903258      -2.74874042       0.14307515       0.00000000
Si      -2.67973598       2.73637794       0.09633649       0.00000000
