10
Lattice="16.290000149 0.0 0.0 0.0 16.290000149 0.0 0.0 0.0 29.1751946751" Properties=species:S:1:pos:R:3:initial_magmoms:R:1 pbc="T T T"
Si      -1.34271955      -1.02017755       1.63947089       0.00000000
Si      -1.35650089       1.30394935      -1.42442053       0.00000000
Si       1.22776102      -1.43316489      -1.41998590       0.00000000
Si       1.41951061       1.31044906       1.38275835       0.00000000
Si       0.06476904      -2.67276597       2.55948148       0.00000000
Si      -0.06977007       2.54290160       2.69797613       0.00000000
Si       2.56732031      -0.23271894       2.77386081       0.00000000
Si      -1.44793666       0.71113996       3.44594059       0.00000000
Si       2.74321794       2.64108143      -0.05166927       0.00000000
Si      -2.74537002       2.65997783      -0.10695626       0.00000000
