10
Lattice="16.290000149 0.0 0.0 0.0 16.290000149 0.0 0.0 0.0 29.1751946751" Properties=species:S:1:pos:R:3:initial_magmoms:R:1 pbc="T T T"
Si      -1.22761441       1.32084208      -1.51550549       0.00000000
Si       1.33999912       1.45611424       1.29146917       0.00000000
Si      -1.61743411      -1.02877867       1.39539121       0.00000000
Si       1.77811868      -1.55012383      -0.63164296       0.00000000
H       -0.85678885      -1.74641834      -1.75742620       0.00000000
H       -0.20432547      -2.16692840      -1.71211712       0.00000000
H        1.34255665       0.61664167      -2.85050405       0.00000000
Si      -0.05033610      -2.31018266       2.51767342       0.00000000
Si       0.02849121       1.07342956      -3.45463480       0.00000000
Si       1.01911870      -3.42036246       0.64984829       0.00000000
