10
Lattice="16.290000149 0.0 0.0 0.0 16.290000149 0.0 0.0 0.0 29.1751946751" Properties=species:S:1:pos:R:3:initial_magmoms:R:1 pbc="T T T"
Si      -1.23808888       1.36492282       1.41808951       0.00000000
Si       1.32406750      -1.37223703       1.33593216       0.00000000
Si       1.34779029       1.39996261      -1.31880632       0.00000000
Si      -1.38826639      -1.35552349      -1.33149753       0.00000000
H       -1.88551865       0.53872659       2.49471255       0.00000000
Si       2.61333793       0.03611493       2.65543869       0.00000000
Si      -2.81517267       2.45416997       0.09654072       0.00000000
Si      -0.08897598       2.76206727      -2.59589212       0.00000000
Si      -0.00443088      -2.69648372      -2.66944279       0.00000000
Si       2.69160487       0.04189788      -2.68656863       0.00000000
