10
Lattice="16.290000149 0.0 0.0 0.0 16.290000149 0.0 0.0 0.0 29.1751946751" Properties=species:S:1:pos:R:3:initial_magmoms:R:1 pbc="T T T"
Si      -1.25087653       1.34435018       1.48525956       0.00000000
Si       1.35656605      -1.38641894       1.39699585       0.00000000
Si      -1.44901180      -1.43280162      -1.28210393       0.00000000
Si       1.52883280       1.37209205      -1.27297209       0.00000000
H       -0.63509824       1.17558578      -2.71253455       0.00000000
Si      -0.04039920      -2.61576515      -2.75107498       0.00000000
Si      -2.58868628      -0.06192155       2.83574140       0.00000000
Si      -2.88404190       2.52987123       0.27509291       0.00000000
Si       0.13523958       2.61948252       2.86301437       0.00000000
Si       3.73252773       0.99225812      -0.47115022       0.00000000
