10
Lattice="16.290000149 0.0 0.0 0.0 16.290000149 0.0 0.0 0.0 29.1751946751" Properties=species:S:1:pos:R:3:initial_magmoms:R:1 pbc="T T T"
Si       2.07008435      -0.72084717       0.84856054       0.00000000
Si       0.75212560       0.56304268      -2.15908111       0.00000000
Si      -1.28537549      -1.99409639      -0.11684665       0.00000000
Si      -0.58334491       1.53485522       1.76276526       0.00000000
H        0.69230872       1.56795650       2.59201182       0.00000000
H        0.12953808       1.84457699      -2.58442627       0.00000000
H       -1.49007564       1.99696994      -2.38267980       0.00000000
Si      -0.01990638       3.53971441       0.13636486       0.00000000
Si       3.10792026      -1.39306054      -1.22713786       0.00000000
Si       1.28700775      -2.22339443       2.55347139       0.00000000
