10
Lattice="16.28999089631971 0.0 0.0 0.0 16.28999089631971 0.0 0.0 0.0 34.385447050020396" Properties=species:S:1:pos:R:3:initial_magmoms:R:1 pbc="T T T"
Si       1.32838874       1.36785501       1.37585878       0.00000000
Si      -1.30437730       1.44917469      -1.31962135       0.00000000
Si      -1.37527138      -1.36384767       1.36619647       0.00000000
Si       1.97697346      -0.80679483      -1.17565972       0.00000000
Si       0.25142589       2.61764010      -2.64764583       0.00000000
Si       2.69273977       2.71580364       0.02072068       0.00000000
Si       2.69285380       0.00164529       2.72545395       0.00000000
Si      -2.71305505      -2.70750293      -0.02620173       0.00000000
Si      -0.02183290      -2.71189626       2.72627920       0.00000000
Si      -0.01834696       2.71751409       2.72982090       0.00000000
