10
Lattice="16.28999089631971 0.0 0.0 0.0 16.28999089631971 0.0 0.0 0.0 34.385447050020396" Properties=species:S:1:pos:R:3:initial_magmoms:R:1 pbc="T T T"
Si       1.33695288       1.35796735       1.38532166       0.00000000
Si      -0.74798793       1.91773900      -1.16244883       0.00000000
Si      -1.39029774      -1.34380312       1.37507480       0.00000000
Si       1.32124932      -1.36739104      -1.64939517       0.00000000
Si       2.67507864      -2.70642904      -0.01702424       0.00000000
Si       2.68397298       0.01271050       2.74265356       0.00000000
Si       2.70668124       2.72028214      -0.00607935       0.00000000
Si      -0.02966409      -2.70432763       2.73811468       0.00000000
Si      -2.72496139       2.72453383       0.01321090       0.00000000
Si      -0.03210759       2.72617912       2.73866485       0.00000000
