10
Lattice="16.28999089631971 0.0 0.0 0.0 16.28999089631971 0.0 0.0 0.0 34.385447050020396" Properties=species:S:1:pos:R:3:initial_magmoms:R:1 pbc="T T T"
Si       1.33802802       1.36163223       1.38418007       0.00000000
Si      -1.36972836      -1.36231478       1.39140102       0.00000000
Si      -1.65271824       1.13103099      -1.29749431       0.00000000
Si       1.59490503      -1.29469825      -1.52516392       0.00000000
Si      -3.45466917      -0.80254314      -1.15636948       0.00000000
Si       2.69438229       2.72111418      -0.00425692       0.00000000
Si       2.70353727      -2.71338976       0.01977508       0.00000000
Si      -2.70668124      -2.72028214       0.00607935       0.00000000
Si       2.69319312       0.00490329       2.74663540       0.00000000
Si      -0.02270826      -2.70757164       2.74873291       0.00000000
