10
Lattice="16.28999089631971 0.0 0.0 0.0 16.28999089631971 0.0 0.0 0.0 34.385447050020396" Properties=species:S:1:pos:R:3:initial_magmoms:R:1 pbc="T T T"
Si      -1.26183969       1.23963642      -1.61432887       0.00000000
Si       1.57102389       1.40261787       1.19162833       0.00000000
Si      -1.95186780      -0.97498908       1.13382636       0.00000000
Si       1.43106021      -1.47431016      -1.57330701       0.00000000
Si       0.93533922      -0.60211098       3.30588750       0.00000000
Si      -2.66326839       2.60273475      -0.36500172       0.00000000
Si      -3.60155610       0.91412964       0.93421873       0.00000000
Si      -2.73621501      -2.82297360      -0.24688765       0.00000000
Si       0.07959294       2.58747102      -2.97217655       0.00000000
Si      -2.63671569      -0.12443931      -2.97062920       0.00000000
