10
Lattice="16.28999089631971 0.0 0.0 0.0 16.28999089631971 0.0 0.0 0.0 34.385447050020396" Properties=species:S:1:pos:R:3:initial_magmoms:R:1 pbc="T T T"
Si      -1.35687555      -1.35772263      -1.35688488       0.00000000
Si       1.35783666       1.35778779      -1.35719435       0.00000000
Si      -1.35518139       1.35977517       1.35963572       0.00000000
Si       1.35886293      -1.36063854       1.35984203       0.00000000
Si       0.00524538       2.71797021       2.68646771       0.00000000
Si       0.01743030      -2.70847314       2.71768971       0.00000000
Si      -2.71461773       0.00009774      -2.71294452       0.00000000
Si       0.00057015       2.71371852      -2.71414801       0.00000000
Si       0.00029322      -2.71459818      -2.71435432       0.00000000
Si       2.71498914       0.00032580      -2.71449186       0.00000000
