10
Lattice="16.28999089631971 0.0 0.0 0.0 16.28999089631971 0.0 0.0 0.0 34.385447050020396" Properties=species:S:1:pos:R:3:initial_magmoms:R:1 pbc="T T T"
Si       1.30232034      -1.41561729       1.31974858       0.00000000
Si      -0.42490836       1.53657054       1.83934736       0.00000000
Si       1.56463821       0.75021966      -1.71342778       0.00000000
Si      -2.01883599      -1.35399222      -0.33522391       0.00000000
Si      -0.53491473      -2.45843793       2.39422563       0.00000000
Si      -3.47359978       0.45227556       0.07392875       0.00000000
Si      -2.65567725       0.93221154       2.24664321       0.00000000
Si      -1.85934060      -2.03235669      -2.53957300       0.00000000
Si       2.50343091      -0.09497070       2.84539733       0.00000000
Si       3.62576304       0.97257816      -0.56289008       0.00000000
