10
Lattice="16.28999089631971 0.0 0.0 0.0 16.28999089631971 0.0 0.0 0.0 34.385447050020396" Properties=species:S:1:pos:R:3:initial_magmoms:R:1 pbc="T T T"
Si       0.74766213      -1.28001933       1.81345511       0.00000000
Si      -1.51451388       1.43677800       1.08568671       0.00000000
Si       1.83723507       1.04282064      -1.07447705       0.00000000
Si      -1.71955611      -1.03210182      -1.51340753       0.00000000
Si      -1.48392126       1.10444571      -2.72944954       0.00000000
Si      -2.79464398      -1.92492414       0.43779576       0.00000000
Si       0.53491473       2.45843793      -2.39422563       0.00000000
Si      -1.12404258      -2.75848344       1.81809714       0.00000000
Si      -0.08319303      -2.51784756      -2.42531009       0.00000000
Si       2.12828850      -2.46855402      -1.44150752       0.00000000
