10
Lattice="16.28999089631971 0.0 0.0 0.0 16.28999089631971 0.0 0.0 0.0 34.385447050020396" Properties=species:S:1:pos:R:3:initial_magmoms:R:1 pbc="T T T"
Si       1.72473633      -1.13875245      -1.02018240       0.00000000
Si       1.30930875       1.81762191       0.77663014       0.00000000
Si      -1.33120251      -1.37559276       1.42991961       0.00000000
Si      -1.20360294       0.49278879      -2.02623237       0.00000000
Si       1.68034608       2.47482567      -1.55257257       0.00000000
Si      -2.82812319      -2.06544168      -0.38566739       0.00000000
Si       0.52362576      -2.45939904      -2.54583115       0.00000000
Si       0.18129141       2.08249731       2.91004201       0.00000000
Si       2.87533161       0.53651115      -2.18313325       0.00000000
Si      -0.45753723       2.65527000      -2.54772235       0.00000000
