10
Lattice="16.28999089631971 0.0 0.0 0.0 16.28999089631971 0.0 0.0 0.0 34.385447050020396" Properties=species:S:1:pos:R:3:initial_magmoms:R:1 pbc="T T T"
Si       1.25880975      -1.88840196       0.70534907       0.00000000
Si       1.33120251       1.37559276      -1.42991961       0.00000000
Si      -1.73253924       1.18547217       1.20576076       0.00000000
Si      -1.49692068      -0.68984892      -1.81558700       0.00000000
Si       0.28948959       1.51319439       2.15321790       0.00000000
Si       0.01759320      -2.12662692      -2.90127372       0.00000000
Si       0.76525533      -3.40664625      -1.08781861       0.00000000
Si       3.46698441      -0.98639208       1.02726580       0.00000000
Si      -3.33408896      -0.43798923       1.90698357       0.00000000
Si      -2.10316932       1.26402255      -3.04885614       0.00000000
