10
Lattice="16.28999089631971 0.0 0.0 0.0 16.28999089631971 0.0 0.0 0.0 34.385447050020396" Properties=species:S:1:pos:R:3:initial_magmoms:R:1 pbc="T T T"
Si       1.08111843      -0.73508625       1.86850624       0.00000000
Si      -2.30985684      -0.51249969       0.19953886       0.00000000
Si       0.78978807      -0.46545417      -2.19754076       0.00000000
Si       0.88648551       2.25552969       0.01275701       0.00000000
Si       3.14105409       1.61847666      -0.20899486       0.00000000
Si       3.05479854      -0.07459191      -1.81149513       0.00000000
Si       3.02301675       0.49363587       1.90347626       0.00000000
Si      -0.24387759       1.22342787      -3.45446710       0.00000000
Si      -2.94979320      -1.16566353      -2.00144045       0.00000000
Si       0.50512032       3.21802434      -2.11817911       0.00000000
