10
Lattice="16.28999089631971 0.0 0.0 0.0 16.28999089631971 0.0 0.0 0.0 34.385447050020396" Properties=species:S:1:pos:R:3:initial_magmoms:R:1 pbc="T T T"
Si      -1.24388811       1.38759849      -1.39505275       0.00000000
Si      -1.36111095      -1.34871426       1.35513810       0.00000000
Si       1.35316143       1.36471104       1.35747631       0.00000000
Si       1.30456836      -1.35501849      -1.43812399       0.00000000
Si      -2.10825180      -0.52084017      -2.73224306       0.00000000
Si       0.61320447       2.26815444      -2.58733269       0.00000000
Si       2.26530369       0.32237910      -2.83302686       0.00000000
Si      -0.48031065      -2.44902231      -2.82016669       0.00000000
Si      -0.00511506      -2.70269019       2.71329525       0.00000000
Si       2.70935280       0.01257588       2.71302017       0.00000000
