10
Lattice="16.28999089631971 0.0 0.0 0.0 16.28999089631971 0.0 0.0 0.0 34.385447050020396" Properties=species:S:1:pos:R:3:initial_magmoms:R:1 pbc="T T T"
Si       1.35661491      -1.35692442       1.35733190       0.00000000
Si      -1.35757602       1.35755973       1.35733190       0.00000000
Si       1.35948195       1.35687555      -1.35647226       0.00000000
Si      -1.35871632      -1.36091547      -1.35843223       0.00000000
Si       2.71609686      -0.00216657      -2.71218804       0.00000000
Si       0.00043983       2.71331127       2.71507642       0.00000000
Si       2.71345788       0.00127062       2.71514519       0.00000000
Si       2.71454931      -2.71461447       0.00055017       0.00000000
Si      -2.71495656      -0.00073305       2.71473256       0.00000000
Si       0.00008145      -2.71417464       2.71559220       0.00000000
