10
Lattice="16.28999089631971 0.0 0.0 0.0 16.28999089631971 0.0 0.0 0.0 34.385447050020396" Properties=species:S:1:pos:R:3:initial_magmoms:R:1 pbc="T T T"
Si       1.25100684       1.54390104       1.27140262       0.00000000
Si       1.50827481      -1.19255832      -1.42569020       0.00000000
Si      -1.21199229       1.51635465      -1.41616543       0.00000000
Si      -0.88703937      -1.90343763       1.23739539       0.00000000
Si      -2.22293340       0.60615090       2.50948571       0.00000000
Si      -2.63430477      -2.67449220      -0.16274641       0.00000000
Si       2.77992108      -2.54633877       0.06117174       0.00000000
Si       0.15457581      -2.55446748      -2.79839240       0.00000000
Si      -2.55860514       0.16285113      -2.79722330       0.00000000
Si       0.97748145      -3.42002034       1.41812540       0.00000000
