10
Lattice="16.28999089631971 0.0 0.0 0.0 16.28999089631971 0.0 0.0 0.0 34.385447050020396" Properties=species:S:1:pos:R:3:initial_magmoms:R:1 pbc="T T T"
Si      -1.23621552      -1.95926346       0.28443658       0.00000000
Si      -0.30362931       1.46792448       1.84918160       0.00000000
Si       2.13851862      -1.07971749      -0.16243694       0.00000000
Si       0.74854179       1.39703040      -1.95959334       0.00000000
Si       2.76477138       0.20439063      -2.03331578       0.00000000
Si       3.06664137      -0.01405827       1.69148986       0.00000000
Si       1.13976243       3.23841374       1.28807957       0.00000000
Si      -0.94804542      -2.48272632       2.63145096       0.00000000
Si      -0.47542365      -3.45354516      -1.57265369       0.00000000
Si       1.23558021       3.56447747      -1.07100412       0.00000000
