10
Lattice="16.28999089631971 0.0 0.0 0.0 16.28999089631971 0.0 0.0 0.0 34.385447050020396" Properties=species:S:1:pos:R:3:initial_magmoms:R:1 pbc="T T T"
Si      -1.35746199       1.35686252       1.35822592       0.00000000
Si       1.35754344      -1.35711862       1.35867293       0.00000000
Si      -1.34711784      -1.36143053      -1.36863440       0.00000000
Si       1.35306369       1.35969698      -1.36939776       0.00000000
Si      -2.45575008       0.05726098      -2.91357340       0.00000000
Si       0.09914094      -2.74555311      -2.65781086       0.00000000
Si       2.71329498       2.71233713      -0.00402310       0.00000000
Si      -2.71262709       2.71359146      -0.00422941       0.00000000
Si      -0.00011403      -2.71456953       2.71473256       0.00000000
Si      -0.00034209       2.71482950       2.71483572       0.00000000
