10
Lattice="16.28999089631971 0.0 0.0 0.0 16.28999089631971 0.0 0.0 0.0 34.385447050020396" Properties=species:S:1:pos:R:3:initial_magmoms:R:1 pbc="T T T"
Si       1.35560493       1.35616368      -1.35870731       0.00000000
Si      -1.35531171      -1.35756203      -1.35874170       0.00000000
Si       1.35431802      -1.32116070       1.40041688       0.00000000
Si      -1.33270119       1.29334944       1.50319504       0.00000000
Si       2.16777546       0.57082278       2.66669607       0.00000000
Si      -0.41096412      -2.34853160       2.63849998       0.00000000
Si      -2.19232449      -0.60730586       2.79337212       0.00000000
Si       0.40408974       2.35428456       2.83288102       0.00000000
Si      -2.70239697       2.70849432       0.01846500       0.00000000
Si      -2.71396287      -0.00155407      -2.71758656       0.00000000
