10
Lattice="16.28999089631971 0.0 0.0 0.0 16.28999089631971 0.0 0.0 0.0 34.385447050020396" Properties=species:S:1:pos:R:3:initial_magmoms:R:1 pbc="T T T"
Si       1.66485429       1.02388514      -1.23505718       0.00000000
Si      -2.07687726       0.32512885      -0.96784772       0.00000000
Si       0.65443446      -2.13273308      -0.77614874       0.00000000
Si      -0.00491958       0.47971769       2.37823639       0.00000000
Si      -2.99734371      -1.75803050      -0.37789627       0.00000000
Si       2.73043206      -2.26572464       0.35482363       0.00000000
Si       0.70558506       3.01100450      -1.86668381       0.00000000
Si       3.32563608       1.55433641       0.30527417       0.00000000
Si       3.47605794      -0.43411058       1.61326292       0.00000000
Si      -2.16334458      -0.05329599       3.24069265       0.00000000
