10
Lattice="16.28999089631971 0.0 0.0 0.0 16.28999089631971 0.0 0.0 0.0 34.385447050020396" Properties=species:S:1:pos:R:3:initial_magmoms:R:1 pbc="T T T"
Si       1.12679559      -1.49459121       1.45793002       0.00000000
Si       1.87041780       0.87698844      -1.17013501       0.00000000
Si      -1.03332357      -1.58053725      -1.48575959       0.00000000
Si      -1.58254092       1.21878522       1.43466137       0.00000000
Si      -0.57169755      -0.59557869      -3.49596833       0.00000000
Si       2.51017497      -2.79379853       0.04898554       0.00000000
Si       2.48702688      -0.14195106       2.82330467       0.00000000
Si       1.37020077       0.63314343      -3.46099831       0.00000000
Si       3.45825297      -0.93493197      -1.31235368       0.00000000
Si      -0.22784823       2.57530239       2.82168855       0.00000000
