10
Lattice="16.28999089631971 0.0 0.0 0.0 16.28999089631971 0.0 0.0 0.0 34.385447050020396" Properties=species:S:1:pos:R:3:initial_magmoms:R:1 pbc="T T T"
Si      -2.26501047      -0.39086226      -0.38604563       0.00000000
Si       0.08625555       1.69306857       1.60250027       0.00000000
Si       0.81101394       0.54288054      -2.14709728       0.00000000
Si       0.86310936      -2.00746557       0.94897010       0.00000000
Si      -3.05479854       0.07459191       1.81149513       0.00000000
Si      -0.52474977      -3.50315147      -0.30857517       0.00000000
Si      -2.16831303       2.33012160       1.82425214       0.00000000
Si       3.24879615      -1.59355296       0.78976539       0.00000000
Si       2.25414504       2.51506197       1.56471064       0.00000000
Si      -0.03178179       0.56822778       3.71497139       0.00000000
