10
Lattice="16.28999089631971 0.0 0.0 0.0 16.28999089631971 0.0 0.0 0.0 34.385447050020396" Properties=species:S:1:pos:R:3:initial_magmoms:R:1 pbc="T T T"
Si       2.25456858      -0.63705303      -0.22175187       0.00000000
Si      -0.38136519       0.96249465      -2.13093612       0.00000000
Si      -0.88648551      -2.25552969      -0.01275701       0.00000000
Si      -0.36572679       1.74799845       1.73736007       0.00000000
Si       2.13653124      -1.76189382       1.89071925       0.00000000
Si      -2.50108515       2.25328167       0.64710009       0.00000000
Si      -0.09669744      -2.72098386      -2.21029777       0.00000000
Si       0.19463292      -2.99061594       1.85574923       0.00000000
Si      -1.48639734       2.99682243      -1.36331497       0.00000000
Si       2.16831303      -2.33012160      -1.82425214       0.00000000
