10
Lattice="16.28999089631971 0.0 0.0 0.0 16.28999089631971 0.0 0.0 0.0 34.385447050020396" Properties=species:S:1:pos:R:3:initial_magmoms:R:1 pbc="T T T"
Si      -1.34673570       1.34965908       1.35396212       0.00000000
Si       1.36435103       1.34794863      -1.35513810       0.00000000
Si      -1.32838874      -1.36785501      -1.37585878       0.00000000
Si       1.36446506      -1.36620972       1.34959517       0.00000000
Si       0.64858472      -2.17464984      -2.55151851       0.00000000
Si       2.45053565      -0.24107571      -2.69264334       0.00000000
Si      -2.63276604       0.08131968      -2.69548014       0.00000000
Si      -2.70859599       2.70137070      -0.00522659       0.00000000
Si      -2.70603846      -0.00822645       2.70909335       0.00000000
Si       0.00864510       2.70614367       2.70998737       0.00000000
