10
Lattice="16.28999089631971 0.0 0.0 0.0 16.28999089631971 0.0 0.0 0.0 34.385447050020396" Properties=species:S:1:pos:R:3:initial_magmoms:R:1 pbc="T T T"
Si      -1.29156894       1.36037790      -1.31637881       0.00000000
Si       1.32519150       1.38865734       1.34091627       0.00000000
Si      -1.38960216      -1.32623406       1.34414851       0.00000000
Si       1.29259521      -1.30502448      -1.57089315       0.00000000
Si      -2.12955912      -0.42279066      -2.60066050       0.00000000
Si       0.34707474       2.42248590      -2.64647157       0.00000000
Si       2.05115535       0.62174043      -2.90161211       0.00000000
Si      -0.47745990      -2.36856600      -2.84635466       0.00000000
Si       2.67649587      -2.66387112      -0.03511444       0.00000000
Si      -0.03341079      -2.67836922       2.69969236       0.00000000
