10
Lattice="16.28999089631971 0.0 0.0 0.0 16.28999089631971 0.0 0.0 0.0 34.385447050020396" Properties=species:S:1:pos:R:3:initial_magmoms:R:1 pbc="T T T"
Si      -1.35681039       1.35866745       1.35678173       0.00000000
Si      -1.35684297      -1.35819504      -1.35781329       0.00000000
Si       1.35822762       1.35703845      -1.35777891       0.00000000
Si       1.35917244      -1.36013355       1.36331497       0.00000000
Si      -0.00229689       2.69312796       2.72752396       0.00000000
Si      -2.71301805       2.71204065      -0.00006877       0.00000000
Si      -2.71345788      -0.00127062      -2.71514519       0.00000000
Si      -2.71337643      -2.71544526       0.00044701       0.00000000
Si       0.00141723       2.71415835      -2.71531711       0.00000000
Si       2.71568961       2.71432125      -0.00044701       0.00000000
