10
Lattice="16.28999089631971 0.0 0.0 0.0 16.28999089631971 0.0 0.0 0.0 34.385447050020396" Properties=species:S:1:pos:R:3:initial_magmoms:R:1 pbc="T T T"
Si       1.42397406      -1.24678773      -1.45202947       0.00000000
Si       1.00877454       1.83671379       1.16896831       0.00000000
Si      -1.29834558       1.44842535      -1.46024760       0.00000000
Si      -1.23779565      -1.51571934       1.55494517       0.00000000
Si      -2.74190022      -2.59524135       0.02695821       0.00000000
Si      -2.62549188       2.77640244      -0.00890584       0.00000000
Si       0.06312375      -2.60483616      -2.82445658       0.00000000
Si       2.90717856      -2.56655466      -0.09366601       0.00000000
Si      -2.65285908       0.11396484      -2.83098982       0.00000000
Si      -0.77258583       3.57793953       1.32384045       0.00000000
