10
Lattice="16.28999089631971 0.0 0.0 0.0 16.28999089631971 0.0 0.0 0.0 34.385447050020396" Properties=species:S:1:pos:R:3:initial_magmoms:R:1 pbc="T T T"
Si       1.32714630      -1.32797709      -1.45134176       0.00000000
Si       1.85290605       0.80153709       1.33274629       0.00000000
Si      -1.64532258      -1.28140398       1.24609491       0.00000000
Si      -1.38934152       1.41531497      -1.42053238       0.00000000
Si       2.62549188      -2.77640244       0.00890584       0.00000000
Si       2.71252935       2.70219239       0.04256921       0.00000000
Si      -0.02736720      -2.66243760      -2.82208399       0.00000000
Si       2.68991883       0.05128092      -2.81936754       0.00000000
Si      -2.73805578       0.05017193      -2.81407217       0.00000000
Si       3.63426642      -0.93968865       1.17787415       0.00000000
