10
Lattice="16.28999089631971 0.0 0.0 0.0 16.28999089631971 0.0 0.0 0.0 34.385447050020396" Properties=species:S:1:pos:R:3:initial_magmoms:R:1 pbc="T T T"
Si       1.80727776      -1.16748801       0.95017359       0.00000000
Si       0.91828359       1.92860961      -1.08812808       0.00000000
Si      -1.45782468      -1.63476666      -1.12117251       0.00000000
Si      -1.09175580       0.67642596       2.11033922       0.00000000
Si      -3.13914816       1.42002441       0.99814131       0.00000000
Si       2.90186802      -2.01481236      -0.93212122       0.00000000
Si       0.79705341      -3.32654832       1.34361209       0.00000000
Si      -1.40022324      -3.38294430       0.44322866       0.00000000
Si      -1.01963997       2.88504764      -2.11047676       0.00000000
Si       1.76184495      -1.95014106      -3.01175422       0.00000000
