10
Lattice="16.28999089631971 0.0 0.0 0.0 16.28999089631971 0.0 0.0 0.0 34.385447050020396" Properties=species:S:1:pos:R:3:initial_magmoms:R:1 pbc="T T T"
Si      -0.99865845      -1.74393477      -1.20956139       0.00000000
Si      -1.38337938       1.29920732       1.40894448       0.00000000
Si       1.35819504      -1.41178167       1.38302128       0.00000000
Si       0.94807800       1.85886656      -1.36133922       0.00000000
Si      -2.24538102      -0.50759966      -2.92996980       0.00000000
Si      -2.51017497       2.79379853      -0.04898554       0.00000000
Si      -0.02314809       2.65184747       2.77431914       0.00000000
Si      -2.63730213      -2.80604277       0.12053137       0.00000000
Si       2.69597871      -0.06812641       2.77541947       0.00000000
Si       2.76687279       2.74489595       0.08960165       0.00000000
