10
Lattice="16.28999089631971 0.0 0.0 0.0 16.28999089631971 0.0 0.0 0.0 34.385447050020396" Properties=species:S:1:pos:R:3:initial_magmoms:R:1 pbc="T T T"
Si       1.32470510       1.36388701       1.36049536       0.00000000
Si      -1.35909099       1.35447465      -1.35595648       0.00000000
Si       1.35474060      -1.36152025      -1.35564701       0.00000000
Si      -1.35783666      -1.36337731       1.37146432       0.00000000
Si       2.61419381       0.01419568       2.72896814       0.00000000
Si      -0.00078819       2.71268109      -2.71352907       0.00000000
Si       2.71369313       2.71272996       0.00522659       0.00000000
Si       2.71416554      -0.00220198      -2.71325399       0.00000000
Si      -2.71665072      -0.00177598      -2.71363223       0.00000000
Si      -0.00105070      -2.71704373      -2.71332276       0.00000000
