10
Lattice="16.28999089631971 0.0 0.0 0.0 16.28999089631971 0.0 0.0 0.0 34.385447050020396" Properties=species:S:1:pos:R:3:initial_magmoms:R:1 pbc="T T T"
Si      -1.35431802       1.32116070      -1.40041688       0.00000000
Si      -1.76528214      -1.02737090       1.23808310       0.00000000
Si       1.36179513      -1.39860371      -1.39140789       0.00000000
Si       0.81345744       1.89198348       1.26627918       0.00000000
Si      -2.68701921       2.61451014       0.10277816       0.00000000
Si       1.62986337       1.02890018       3.27091748       0.00000000
Si       2.66374080       2.71011615       0.04019661       0.00000000
Si       0.00128691       2.67732438      -2.75912420       0.00000000
Si      -2.70962973      -0.03640133      -2.75915858       0.00000000
Si      -3.54664251       0.71385484       1.39295524       0.00000000
