10
Lattice="16.28999089631971 0.0 0.0 0.0 16.28999089631971 0.0 0.0 0.0 34.385447050020396" Properties=species:S:1:pos:R:3:initial_magmoms:R:1 pbc="T T T"
Si       1.45875321       0.96230894      -1.52554560       0.00000000
Si       0.79949691      -1.09823012       1.93129410       0.00000000
Si      -1.13867100      -1.60651070      -1.34976709       0.00000000
Si      -1.05024888       2.57103441      -0.27814404       0.00000000
Si      -1.19053836      -0.42408476       2.98654967       0.00000000
Si       2.59439494      -1.10546288      -1.66666355       0.00000000
Si       2.72839485       0.19887484       2.28639281       0.00000000
Si      -3.26946816      -1.46957696      -0.46134980       0.00000000
Si      -2.66880699      -1.81230227       1.80179843       0.00000000
Si       0.55516320       3.41977599       1.36671913       0.00000000
