10
Lattice="16.28999089631971 0.0 0.0 0.0 16.28999089631971 0.0 0.0 0.0 34.385447050020396" Properties=species:S:1:pos:R:3:initial_magmoms:R:1 pbc="T T T"
Si       0.87047244       0.44165448      -2.12684424       0.00000000
Si       1.51870041      -1.77233245       0.53390313       0.00000000
Si       0.28145862       2.11248720       1.09476447       0.00000000
Si      -2.38568679      -0.41391261       0.15920471       0.00000000
Si       0.18686259      -1.68551815      -2.95175158       0.00000000
Si      -3.24879615       1.59355296      -0.78976539       0.00000000
Si       0.46589400       1.47331647       3.37795944       0.00000000
Si       1.33946154      -3.12216488      -1.51873727       0.00000000
Si      -2.73675258      -0.22740840       2.62729032       0.00000000
Si       3.67607375      -0.53414910       0.86348783       0.00000000
