10
Lattice="16.28999089631971 0.0 0.0 0.0 16.28999089631971 0.0 0.0 0.0 34.385447050020396" Properties=species:S:1:pos:R:3:initial_magmoms:R:1 pbc="T T T"
Si      -0.87047244      -0.44165448       2.12684424       0.00000000
Si      -1.00284498       1.96806006      -0.85231255       0.00000000
Si      -0.68360985      -2.12717263      -0.82490734       0.00000000
Si       2.25809929       0.76738932      -0.26339267       0.00000000
Si       0.64822797      -2.21398693       2.66074738       0.00000000
Si      -0.18319734       1.84950144      -3.03479248       0.00000000
Si       2.08648577       1.30416111      -2.58183273       0.00000000
Si       0.46898910      -3.56381936       0.60810697       0.00000000
Si      -0.58901382       1.67083272       3.22160872       0.00000000
Si       2.07097281       2.99832111       0.57382466       0.00000000
