10
Lattice="16.28999089631971 0.0 0.0 0.0 16.28999089631971 0.0 0.0 0.0 34.385447050020396" Properties=species:S:1:pos:R:3:initial_magmoms:R:1 pbc="T T T"
Si      -1.42382745       1.29474549       1.32489952       0.00000000
Si       1.30437730      -1.44917469       1.31962135       0.00000000
Si       1.55580318       1.16846541      -1.32802447       0.00000000
Si      -1.81879479      -0.88602939      -1.45094087       0.00000000
Si      -0.16037505      -0.00641826      -3.14683206       0.00000000
Si       2.08144076      -0.63693900      -2.84327717       0.00000000
Si      -0.07582995       2.62005102       2.69025355       0.00000000
Si      -3.40662996       0.92589102      -1.30872219       0.00000000
Si       2.63276604      -0.08131968       2.69548014       0.00000000
Si      -2.50303995       2.87321391      -0.18884498       0.00000000
