10
Lattice="16.28999089631971 0.0 0.0 0.0 16.28999089631971 0.0 0.0 0.0 34.385447050020396" Properties=species:S:1:pos:R:3:initial_magmoms:R:1 pbc="T T T"
Si       1.34429465       1.34480466      -1.36689106       0.00000000
Si       1.28967930      -1.33739271       1.43889422       0.00000000
Si      -1.37749869       1.31841486       1.40540278       0.00000000
Si      -1.37277459      -1.37018448      -1.36042659       0.00000000
Si      -0.56060406      -2.15552538       2.66497679       0.00000000
Si      -2.32428978      -0.37206360       2.83116175       0.00000000
Si       2.66567672       2.70143586      -0.02111268       0.00000000
Si       2.67027539      -2.71884824      -0.00367924       0.00000000
Si       2.70033207      -0.01132155      -2.72071563       0.00000000
Si      -0.01166364       2.70179424      -2.72064686       0.00000000
