10
Lattice="16.28999089631971 0.0 0.0 0.0 16.28999089631971 0.0 0.0 0.0 34.385447050020396" Properties=species:S:1:pos:R:3:initial_magmoms:R:1 pbc="T T T"
Si      -1.35603742       1.35612621       1.35382458       0.00000000
Si      -1.35554997      -1.35873261      -1.35698804       0.00000000
Si       1.35950150       1.35614250      -1.35650664       0.00000000
Si       1.35893135      -1.35868374       1.36176762       0.00000000
Si      -0.03465535       2.71275741       2.69960296       0.00000000
Si      -2.70033207       0.01132155       2.72071563       0.00000000
Si      -0.03005668      -2.70752669       2.71703639       0.00000000
Si      -2.71199571       2.71311579       0.00006877       0.00000000
Si      -2.71292424      -0.00040725      -2.71346030       0.00000000
Si       0.00175932       2.71396287      -2.71256628       0.00000000
