10
Lattice="16.28999089631971 0.0 0.0 0.0 16.28999089631971 0.0 0.0 0.0 34.385447050020396" Properties=species:S:1:pos:R:3:initial_magmoms:R:1 pbc="T T T"
Si       0.99837567      -1.56299292       1.46264293       0.00000000
Si      -1.48089132       1.55608596       1.07654018       0.00000000
Si       1.35653250       0.93893931      -1.79107017       0.00000000
Si      -0.71780256      -2.73787659      -0.35616466       0.00000000
Si      -2.50727535       1.98392652      -1.06632769       0.00000000
Si       1.25054162      -1.08393660      -2.97654350       0.00000000
Si      -0.90223794      -2.09870586      -2.63935962       0.00000000
Si       2.25403494      -0.01005093       2.71989180       0.00000000
Si      -2.17834767      -0.10257813      -2.95917884       0.00000000
Si       1.52401325      -3.36839733      -0.05260976       0.00000000
