10
Lattice="16.28999089631971 0.0 0.0 0.0 16.28999089631971 0.0 0.0 0.0 34.385447050020396" Properties=species:S:1:pos:R:3:initial_magmoms:R:1 pbc="T T T"
Si      -1.35863487       1.35540945      -1.35843223       0.00000000
Si       1.35840681      -1.35892809      -1.35946379       0.00000000
Si       1.36969578       1.35900954       1.34832290       0.00000000
Si      -1.36418976      -1.36748034       1.36441530       0.00000000
Si       2.56456728      -0.13584231       2.72401664       0.00000000
Si      -2.59729389       0.04391784       2.81926438       0.00000000
Si       2.71834809       2.70861975      -0.00347293       0.00000000
Si      -2.71492398       2.71283886       0.00453888       0.00000000
Si      -2.71122615      -2.71834488       0.00116911       0.00000000
Si       2.71436510      -2.71591767      -0.00570799       0.00000000
