10
Lattice="16.28999089631971 0.0 0.0 0.0 16.28999089631971 0.0 0.0 0.0 34.385447050020396" Properties=species:S:1:pos:R:3:initial_magmoms:R:1 pbc="T T T"
Si       0.73821393      -1.02135042       1.96667674       0.00000000
Si      -0.81707382      -1.85909625      -1.15806812       0.00000000
Si       1.91588319       0.96536169      -0.99116107       0.00000000
Si      -1.84989240       1.68153525       0.07303473       0.00000000
Si       0.21126501       1.15054641       2.56477754       0.00000000
Si      -2.18410781      -0.51482916      -2.42586026       0.00000000
Si       0.57216996       2.20424877      -2.43861727       0.00000000
Si      -0.86403789       3.43873755      -1.13389514       0.00000000
Si      -3.65528771       0.70861500      -1.04191401       0.00000000
Si       2.74774833       2.69320941       0.44697668       0.00000000
