10
Lattice="16.28999089631971 0.0 0.0 0.0 16.28999089631971 0.0 0.0 0.0 34.385447050020396" Properties=species:S:1:pos:R:3:initial_magmoms:R:1 pbc="T T T"
Si      -1.72221138      -1.25201682      -1.07244831       0.00000000
Si       1.29354722       1.12550868      -1.67326556       0.00000000
Si      -1.71823662       1.22578992       1.24011184       0.00000000
Si       0.84088884      -1.67672970       1.61432887       0.00000000
Si      -0.55969182       2.17038186      -2.76428202       0.00000000
Si      -0.72475839      -2.44022571      -2.80045553       0.00000000
Si       0.73489796      -3.69960561       0.42885554       0.00000000
Si      -0.49169736       2.77177608       2.56195794       0.00000000
Si       3.06031175       2.27511027      -0.45275343       0.00000000
Si       3.05785196      -0.95513157       2.12605338       0.00000000
