10
Lattice="16.28999089631971 0.0 0.0 0.0 16.28999089631971 0.0 0.0 0.0 34.385447050020396" Properties=species:S:1:pos:R:3:initial_magmoms:R:1 pbc="T T T"
Si      -1.20971169       1.58847048      -1.23113723       0.00000000
Si      -1.37844351      -0.87470784       1.73515940       0.00000000
Si       1.67415588       1.46277684       0.89278425       0.00000000
Si       1.29718899      -1.75378140      -1.09201364       0.00000000
Si       0.51163632      -1.95962184       2.58461796       0.00000000
Si       2.20669227       2.35978569      -1.19486057       0.00000000
Si       1.50908931      -3.14783073       0.85661074       0.00000000
Si      -3.04864092       0.39482073      -2.04486929       0.00000000
Si      -1.53841131       0.78012810       3.40288890       0.00000000
Si      -2.39547708       2.96717463       0.30637450       0.00000000
