10
Lattice="16.28999089631971 0.0 0.0 0.0 16.28999089631971 0.0 0.0 0.0 34.385447050020396" Properties=species:S:1:pos:R:3:initial_magmoms:R:1 pbc="T T T"
Si       0.53253639       0.89700885      -2.08764481       0.00000000
Si       1.85323904      -1.04487318       1.09101646       0.00000000
Si      -0.69278112       1.95001074       1.20032786       0.00000000
Si      -1.67415588      -1.46277684      -0.89278425       0.00000000
Si       2.50262360       1.91690946      -1.31761668       0.00000000
Si       0.55969182      -2.17038186       2.76428202       0.00000000
Si       2.90674592      -1.89227898      -0.86383168       0.00000000
Si      -2.88386757       0.12569364      -2.12392148       0.00000000
Si      -2.92960989       1.43972649       1.49322326       0.00000000
Si       0.41666562       1.74001635       3.26373092       0.00000000
