10
Lattice="16.28999089631971 0.0 0.0 0.0 16.28999089631971 0.0 0.0 0.0 34.385447050020396" Properties=species:S:1:pos:R:3:initial_magmoms:R:1 pbc="T T T"
Si      -1.34978940       1.34899119       1.35784768       0.00000000
Si      -1.35584928      -1.34856765      -1.37771560       0.00000000
Si       1.36515087      -1.36580247       1.35581893       0.00000000
Si       1.36138788       1.31958774      -1.40697075       0.00000000
Si       0.32389407      -2.34035172      -2.72951487       0.00000000
Si       2.33507606      -0.61133112      -2.84630511       0.00000000
Si      -2.70715365       2.70396081      -0.00168489       0.00000000
Si       0.00609246       2.70567126       2.71356346       0.00000000
Si      -2.70844056      -0.00744453       2.71476695       0.00000000
Si       2.71930177       2.70910845      -0.00842444       0.00000000
