10
Lattice="16.28999089631971 0.0 0.0 0.0 16.28999089631971 0.0 0.0 0.0 34.385447050020396" Properties=species:S:1:pos:R:3:initial_magmoms:R:1 pbc="T T T"
Si       1.32271542      -1.30427514       1.60800882       0.00000000
Si      -2.01986226      -0.68681898      -1.22923369       0.00000000
Si      -1.36708938       1.44607959       1.61848951       0.00000000
Si       1.51191467       0.82269387      -1.94517349       0.00000000
Si      -2.77842240      -2.61358389       0.10148527       0.00000000
Si      -2.72528442       2.85786126       0.23546823       0.00000000
Si       2.29640360      -3.23519400       0.16867447       0.00000000
Si      -0.03867246      -2.62386288       3.01497958       0.00000000
Si      -3.72394287       1.11392649      -0.97409315       0.00000000
Si      -1.57688829      -0.81335970      -3.59467869       0.00000000
