10
Lattice="16.28999089631971 0.0 0.0 0.0 16.28999089631971 0.0 0.0 0.0 34.385447050020396" Properties=species:S:1:pos:R:3:initial_magmoms:R:1 pbc="T T T"
Si       1.33778367       1.34365526       1.39239819       0.00000000
Si      -1.37873673      -1.36598166       1.39480518       0.00000000
Si      -1.35819504       1.41178167      -1.38302128       0.00000000
Si       1.36708938      -1.44607959      -1.61848951       0.00000000
Si      -2.35685349      -0.33215310      -2.59258266       0.00000000
Si      -0.65277288      -2.13289857      -2.84772321       0.00000000
Si       2.71305505       2.70750293       0.02620173       0.00000000
Si       2.68980480      -2.75035473      -0.01048069       0.00000000
Si       2.69122214      -0.00439333       2.75248093       0.00000000
Si      -2.74157442       2.71098899       0.02592320       0.00000000
