10
Lattice="16.28999089631971 0.0 0.0 0.0 16.28999089631971 0.0 0.0 0.0 34.385447050020396" Properties=species:S:1:pos:R:3:initial_magmoms:R:1 pbc="T T T"
Si      -1.36138788      -1.31958774       1.40697075       0.00000000
Si       1.35791389       1.38952071       1.39854632       0.00000000
Si      -1.32271542       1.30427514      -1.60800882       0.00000000
Si       0.97368818      -1.93091886      -1.43933436       0.00000000
Si      -2.71723716      -2.66815539       0.02925515       0.00000000
Si       2.72196845      -2.70389565       0.01722024       0.00000000
Si      -2.68980480       2.75035473       0.01048069       0.00000000
Si       0.00376299      -2.68539021       2.76278969       0.00000000
Si      -2.71117728       0.02940345       2.76481843       0.00000000
Si       2.71854755       0.02899620       2.76158620       0.00000000
