10
Lattice="16.28999089631971 0.0 0.0 0.0 16.28999089631971 0.0 0.0 0.0 34.385447050020396" Properties=species:S:1:pos:R:3:initial_magmoms:R:1 pbc="T T T"
Si      -1.36129014      -1.34982198      -1.36761315       0.00000000
Si       1.35783666       1.36337731      -1.37146432       0.00000000
Si       1.33268490      -1.45691244       1.30575370       0.00000000
Si      -1.36179513       1.39860371       1.39140789       0.00000000
Si       2.69671569      -0.12931002       2.58348324       0.00000000
Si       2.68254176       2.72726433      -0.01096896       0.00000000
Si      -2.71187775      -2.71226871       0.00849321       0.00000000
Si      -2.71611315       2.71976441      -0.00900899       0.00000000
Si       2.72004948      -2.71655298      -0.02943396       0.00000000
Si      -0.00042354      -2.71230129      -2.72659555       0.00000000
