10
Lattice="16.28999089631971 0.0 0.0 0.0 16.28999089631971 0.0 0.0 0.0 34.385447050020396" Properties=species:S:1:pos:R:3:initial_magmoms:R:1 pbc="T T T"
Si      -0.98090235       2.10569427       0.00158173       0.00000000
Si       0.10795383      -0.23617242      -2.33205671       0.00000000
Si       1.94132817      -0.71286669       1.14984999       0.00000000
Si      -1.47507579      -1.48418190       1.11357333       0.00000000
Si       2.83571826      -1.98641889      -0.61182060       0.00000000
Si      -2.70697446       1.98426861       1.52894976       0.00000000
Si       1.71271431      -1.87035264      -2.69850262       0.00000000
Si      -2.66084118      -0.10547775       2.65108506       0.00000000
Si      -1.55875752       2.67978645      -2.16714401       0.00000000
Si       0.43127775       2.00564109      -3.22239959       0.00000000
