10
Lattice="16.28999089631971 0.0 0.0 0.0 16.28999089631971 0.0 0.0 0.0 34.385447050020396" Properties=species:S:1:pos:R:3:initial_magmoms:R:1 pbc="T T T"
Si       0.44297397      -0.12654072      -2.36544500       0.00000000
Si      -0.75856014      -1.92676491       1.33071896       0.00000000
Si       2.01986226       0.68681898       1.22923369       0.00000000
Si      -1.70408061       1.80074547       0.25514054       0.00000000
Si      -2.05115535      -0.62174043       2.90161211       0.00000000
Si       0.65277288       2.13289857       2.84772321       0.00000000
Si      -3.34272429       0.73863747       1.58523330       0.00000000
Si       2.64282444      -1.88151129      -2.07980493       0.00000000
Si      -0.70542216       3.54468024       1.46470193       0.00000000
Si       3.53177693       1.50951285      -0.71593979       0.00000000
