10
Lattice="16.28999089631971 0.0 0.0 0.0 16.28999089631971 0.0 0.0 0.0 34.385447050020396" Properties=species:S:1:pos:R:3:initial_magmoms:R:1 pbc="T T T"
Si       1.35654975       1.35616023       1.35791645       0.00000000
Si      -1.35713130       1.35774525      -1.35729751       0.00000000
Si       1.35780408      -1.35663043      -1.35860416       0.00000000
Si      -1.35942493      -1.35931828       1.35760698       0.00000000
Si       0.00171045      -2.71270777       2.71380415       0.00000000
Si       2.71425609       0.00175654      -2.71225681       0.00000000
Si      -2.71416554       0.00220198       2.71325399       0.00000000
Si      -2.71495373       2.71488307      -0.00027508       0.00000000
Si      -2.71521624      -2.71484176      -0.00006877       0.00000000
Si       2.71508688       2.71498081       0.00065332       0.00000000
