10
Lattice="16.28999089631971 0.0 0.0 0.0 16.28999089631971 0.0 0.0 0.0 34.385447050020396" Properties=species:S:1:pos:R:3:initial_magmoms:R:1 pbc="T T T"
Si       1.43620785      -1.23448878      -1.30472213       0.00000000
Si      -1.27796353       1.47232278      -1.29299669       0.00000000
Si      -0.98585451      -1.75720230       1.20692987       0.00000000
Si       1.74726540       0.77105457       1.40014180       0.00000000
Si       0.05927931       1.04725152       3.10070942       0.00000000
Si      -2.00707461      -0.16187373       2.61697468       0.00000000
Si       0.07578108      -2.59268382      -2.63155412       0.00000000
Si       0.86403789      -3.43873755       1.13389514       0.00000000
Si       2.77992108      -2.47337586       0.14273407       0.00000000
Si      -2.63746900       0.11433951      -2.63550845       0.00000000
