10
Lattice="16.28999089631971 0.0 0.0 0.0 16.28999089631971 0.0 0.0 0.0 34.385447050020396" Properties=species:S:1:pos:R:3:initial_magmoms:R:1 pbc="T T T"
Si       1.05350688      -0.84740580      -1.95484814       0.00000000
Si      -1.85323904       1.04487318      -1.09101646       0.00000000
Si      -1.29354722      -1.12550868       1.67326556       0.00000000
Si       1.76676453       1.14960159       1.22051213       0.00000000
Si       1.55010753      -2.88893376      -0.90970190       0.00000000
Si       2.28613860       1.17854892      -2.41437551       0.00000000
Si       0.82086939       3.29207868       1.58155952       0.00000000
Si       3.52201203       1.34224713      -0.40540465       0.00000000
Si      -1.43657342       2.78488953       2.17271446       0.00000000
Si       0.64938456       2.96178264      -2.40863314       0.00000000
