10
Lattice="16.28999089631971 0.0 0.0 0.0 16.28999089631971 0.0 0.0 0.0 34.385447050020396" Properties=species:S:1:pos:R:3:initial_magmoms:R:1 pbc="T T T"
Si      -1.35579131      -1.35552348      -1.35767575       0.00000000
Si       1.36113539      -1.35338949       1.35619718       0.00000000
Si      -1.35474060       1.36152025       1.35564701       0.00000000
Si       1.35942493       1.35931828      -1.35760698       0.00000000
Si       0.00747222      -2.71841004       2.69767737       0.00000000
Si      -2.71300080      -2.71415835       0.00051578       0.00000000
Si       0.00079006      -2.71280628      -2.71531711       0.00000000
Si      -2.71379901       0.00112401      -2.71545466       0.00000000
Si      -2.71383159       2.71599490      -0.00030947       0.00000000
Si       2.71709870      -2.71404432      -0.00055017       0.00000000
