10
Lattice="16.28999089631971 0.0 0.0 0.0 16.28999089631971 0.0 0.0 0.0 34.385447050020396" Properties=species:S:1:pos:R:3:initial_magmoms:R:1 pbc="T T T"
Si      -1.38736458       1.25964054       1.33518766       0.00000000
Si       1.27796353      -1.47232278       1.29299669       0.00000000
Si      -1.35950547      -1.35798327      -1.34251176       0.00000000
Si       1.35366316       1.36502055      -1.34148020       0.00000000
Si      -2.34350613      -0.25563897       2.81059924       0.00000000
Si      -0.02333380       2.58724296       2.61291720       0.00000000
Si      -0.00514764      -2.70871749      -2.69867455       0.00000000
Si       2.70962647       0.00436572      -2.69822754       0.00000000
Si      -2.70815778      -2.70759348       0.00928408       0.00000000
Si      -0.00747222       2.71841004      -2.69767737       0.00000000
