10
Lattice="16.28999089631971 0.0 0.0 0.0 16.28999089631971 0.0 0.0 0.0 34.385447050020396" Properties=species:S:1:pos:R:3:initial_magmoms:R:1 pbc="T T T"
Si      -0.80176122       1.52505351       1.51732747       0.00000000
Si      -0.35209206      -2.23339158       0.42847730       0.00000000
Si      -1.71266870       0.77892264      -1.35231162       0.00000000
Si       1.33589403      -2.50958853      -1.27209032       0.00000000
Si      -3.00567442       1.26796473       0.58541256       0.00000000
Si       2.22293340      -0.60615090      -2.50948571       0.00000000
Si      -0.43735392       2.28580565      -2.57829103       0.00000000
Si       3.47394024       0.93775014      -1.23808310       0.00000000
Si      -0.34213887      -2.83980312       2.67436402       0.00000000
Si      -0.45268281       3.76517190       1.03142645       0.00000000
