10
Lattice="16.28999089631971 0.0 0.0 0.0 16.28999089631971 0.0 0.0 0.0 34.385447050020396" Properties=species:S:1:pos:R:3:initial_magmoms:R:1 pbc="T T T"
Si      -0.17125677       0.28900089       2.34646422       0.00000000
Si      -2.02763259      -0.76893687      -1.02530583       0.00000000
Si       0.42029829       2.32721288      -0.44800824       0.00000000
Si       2.00397951      -1.33678998       0.11866424       0.00000000
Si      -1.99980927      -1.09270062       2.59379888       0.00000000
Si       3.44737125       0.43369928      -0.44243779       0.00000000
Si       2.63177982       2.37650642       0.53579434       0.00000000
Si      -1.62869049      -0.33365178      -3.22291537       0.00000000
Si      -1.58097708      -3.04733772       1.25410673       0.00000000
Si      -3.69860378       0.71359715      -0.20177392       0.00000000
