10
Lattice="16.290000149 0.0 0.0 0.0 16.290000149 0.0 0.0 0.0 29.1751946751" Properties=species:S:1:pos:R:3:initial_magmoms:R:1 pbc="T T T"
Si      -1.08462079      -1.16194942       1.70666136       0.00000000
Si       0.87156388      -1.78258214      -1.28522568       0.00000000
Si       1.87212827       1.46551357       0.15891729       0.00000000
Si      -1.59718564       1.30461724      -1.21094563       0.00000000
H        0.47529333       2.30249378       1.78695150       0.00000000
H       -1.23536845      -0.36611775       2.98389304       0.00000000
H        2.59040324       1.54522054       1.48469648       0.00000000
Si       1.99420553      -0.33958134      -2.83477862       0.00000000
Si      -3.29781279      -1.07761609       0.90921577       0.00000000
Si      -0.28377180       2.66175344      -2.59848871       0.00000000
