10
Lattice="16.290000149 0.0 0.0 0.0 16.290000149 0.0 0.0 0.0 29.1751946751" Properties=species:S:1:pos:R:3:initial_magmoms:R:1 pbc="T T T"
Si       0.43939017      -0.24762429       2.28340595       0.00000000
Si      -1.71647732       1.63245350       0.10576008       0.00000000
Si      -0.04843017      -2.29405556      -0.66843289       0.00000000
Si       1.86916349       0.89769304      -1.27597714       0.00000000
H       -0.91676863       0.16749378      -2.53900049       0.00000000
Si       2.15415704      -2.67579542       0.13811537       0.00000000
Si      -0.32301441       3.37124811      -0.80981588       0.00000000
Si       2.07229979      -1.98304688       2.36780628       0.00000000
Si       3.46405224       1.71062921       0.28489578       0.00000000
Si      -3.77551704       0.62582923      -0.61262074       0.00000000
