10
Lattice="16.290000149 0.0 0.0 0.0 16.290000149 0.0 0.0 0.0 29.1751946751" Properties=species:S:1:pos:R:3:initial_magmoms:R:1 pbc="T T T"
Si      -1.25820703      -1.36930483       1.42527536       0.00000000
Si      -1.45179739       1.41747436      -1.21680984       0.00000000
Si       0.95651623      -1.27045711      -1.75445033       0.00000000
Si       1.38904831       1.37813401       1.34209397       0.00000000
Si       2.35001171       0.16496883      -2.93064831       0.00000000
Si      -2.68472234       0.00667890       2.71911064       0.00000000
Si      -2.06814584      -3.22871061       0.24405984       0.00000000
Si       2.73787662       0.01583388       2.71834625       0.00000000
Si       0.02565675       2.72614781       2.73230366       0.00000000
Si      -0.18832869       2.90110242      -2.54372687       0.00000000
