10
Lattice="16.290000149 0.0 0.0 0.0 16.290000149 0.0 0.0 0.0 29.1751946751" Properties=species:S:1:pos:R:3:initial_magmoms:R:1 pbc="T T T"
Si      -0.92820421       1.04124052      -1.83541150       0.00000000
Si       1.07419519       1.75874987       1.06261894       0.00000000
Si       1.33149574      -1.54800613      -1.15364555       0.00000000
Si      -1.93704392      -1.03009816       0.90008393       0.00000000
H        0.51600204      -1.28340766       2.39309534       0.00000000
Si       0.69439384      -2.67150627       1.78353800       0.00000000
Si      -1.69826510      -1.00445770      -2.71752351       0.00000000
Si      -0.47578203      -2.87516548      -1.76486588       0.00000000
Si      -2.22203747       2.54339030      -0.51400858       0.00000000
Si      -1.20645370      -3.21990261       0.49775800       0.00000000
