10
Lattice="16.290000149 0.0 0.0 0.0 16.290000149 0.0 0.0 0.0 29.1751946751" Properties=species:S:1:pos:R:3:initial_magmoms:R:1 pbc="T T T"
Si      -1.43018871       1.21316518      -1.38249577       0.00000000
Si       1.14139144      -1.42342021      -1.46999218       0.00000000
Si      -1.47987972      -1.20482470       1.39562461       0.00000000
Si       1.50403942       1.33859818       1.30144708       0.00000000
H        0.11471418      -2.62322759       0.69629520       0.00000000
H       -2.62610767      -0.24855282       1.66071043       0.00000000
H        2.07884837      -2.31518369      -0.68806779       0.00000000
Si      -0.19658772      -1.04363515       3.42160848       0.00000000
Si      -0.06569757       2.63974565      -2.68630605       0.00000000
Si      -2.86912515       2.45410481      -0.01499605       0.00000000
