10
Lattice="16.290000149 0.0 0.0 0.0 16.290000149 0.0 0.0 0.0 29.1751946751" Properties=species:S:1:pos:R:3:initial_magmoms:R:1 pbc="T T T"
Si       1.21510369      -1.41463990       1.45086347       0.00000000
Si      -1.48768426      -1.24893802      -1.37890723       0.00000000
Si      -1.48045150       1.29867074       1.34106700       0.00000000
Si       1.61741782       1.48696262      -0.93815756       0.00000000
Si       2.55583586      -2.77115709       0.10809410       0.00000000
H        1.16460469      -1.11278620      -3.45028770       0.00000000
Si       0.88682761       3.67676706      -0.53583163       0.00000000
Si      -2.79684642      -2.61690707       0.10978626       0.00000000
H        3.06665769      -0.68883895      -2.20864976       0.00000000
Si      -0.18296928       2.58243255       2.84706721       0.00000000
