10
Lattice="16.290000149 0.0 0.0 0.0 16.290000149 0.0 0.0 0.0 29.1751946751" Properties=species:S:1:pos:R:3:initial_magmoms:R:1 pbc="T T T"
Si       1.24967107      -1.37016820       1.41342732       0.00000000
Si      -1.28705662       1.44917470       1.32818907       0.00000000
Si       1.90760789       0.79060258      -1.12189710       0.00000000
Si      -1.83905957      -0.88153336      -1.18635969       0.00000000
H        0.69584365      -1.82759141      -1.92303919       0.00000000
Si       1.25403679       1.21456612      -3.25351560       0.00000000
Si       2.66944232       0.05869287       2.64938484       0.00000000
Si      -2.71407692       0.05854626       2.60979410       0.00000000
Si       2.74778094      -2.60581521       0.13375660       0.00000000
Si      -3.47196918       0.85388923      -1.27076003       0.00000000
