10
Lattice="16.290000149 0.0 0.0 0.0 16.290000149 0.0 0.0 0.0 29.1751946751" Properties=species:S:1:pos:R:3:initial_magmoms:R:1 pbc="T T T"
Si       1.39349548       1.43542594      -1.17619797       0.00000000
Si       1.70134391      -1.59757660       0.01575461       0.00000000
Si      -0.95651623       1.27045711       1.75445033       0.00000000
Si      -1.59488875      -0.81293617      -1.56087292       0.00000000
Si      -2.07200657       1.21674898      -2.61972826       0.00000000
Si      -0.17423784       2.71555931      -2.30020152       0.00000000
Si       0.62714872      -3.35632647      -1.04686434       0.00000000
Si      -2.40831362       2.68793147       0.53764049       0.00000000
Si      -0.30105549      -2.31508595      -2.88227583       0.00000000
Si       2.35491500      -2.02154015       2.14737310       0.00000000
