10
Lattice="16.290000149 0.0 0.0 0.0 16.290000149 0.0 0.0 0.0 29.1751946751" Properties=species:S:1:pos:R:3:initial_magmoms:R:1 pbc="T T T"
Si       1.41672502      -1.34300577       1.25494182       0.00000000
Si      -1.49810986       1.23564701       1.27967072       0.00000000
Si      -1.03975813      -1.85365378      -0.95207996       0.00000000
Si       0.86503159       1.72806113      -1.38284588       0.00000000
H       -2.05193729       0.77822381      -2.05679579       0.00000000
Si      -1.87354550      -0.60987480      -2.66635313       0.00000000
Si      -0.07833861       2.66450808       2.51562824       0.00000000
Si       2.64816758      -2.54513170      -0.34025863       0.00000000
Si      -0.84017305       3.39641779      -1.25565370       0.00000000
Si      -0.04344543      -2.78029415       2.46915216       0.00000000
