10
Lattice="16.290000149 0.0 0.0 0.0 16.290000149 0.0 0.0 0.0 29.1751946751" Properties=species:S:1:pos:R:3:initial_magmoms:R:1 pbc="T T T"
Si       1.38930407      -1.34977312       1.32930939       0.00000000
Si       1.37588111       1.34856766      -1.34996543       0.00000000
Si      -1.31453546      -1.36588393      -1.39431173       0.00000000
Si      -1.36994503       1.33970590       1.37984083       0.00000000
Si      -2.66270315      -2.71964810      -0.03743177       0.00000000
Si       0.02923566      -2.70176168       2.68143379       0.00000000
Si      -2.70227156       2.70640433       0.00851916       0.00000000
Si       0.02976835       2.70951410      -2.70532828       0.00000000
Si      -2.68317968      -0.00902466      -2.73462017       0.00000000
Si       2.70770265      -2.71215470      -0.06112203       0.00000000
