10
Lattice="16.290000149 0.0 0.0 0.0 16.290000149 0.0 0.0 0.0 29.1751946751" Properties=species:S:1:pos:R:3:initial_magmoms:R:1 pbc="T T T"
Si       1.30170133       1.29577177      -1.49735852       0.00000000
Si       1.26206776      -1.63980028       1.15670894       0.00000000
Si      -1.00973566       1.75088180       1.27428498       0.00000000
Si      -1.29831301      -1.67050694      -1.17543942       0.00000000
H        0.23444568      -2.75229327       1.36860838       0.00000000
H       -3.05336505      -1.03381228       0.35695851       0.00000000
H       -2.48443679      -1.15820272      -1.97381862       0.00000000
H       -0.29211228      -1.20469438       3.18633971       0.00000000
H       -1.85477942       0.49661694      -3.08410983       0.00000000
Si      -2.50924646       2.77061952      -0.24066618       0.00000000
