10
Lattice="16.290000149 0.0 0.0 0.0 16.290000149 0.0 0.0 0.0 29.1751946751" Properties=species:S:1:pos:R:3:initial_magmoms:R:1 pbc="T T T"
Si       1.37277460      -1.34715369       1.33707000       0.00000000
Si       1.36402687       1.34768474      -1.34984873       0.00000000
Si      -1.34991973      -1.36960131      -1.35124914       0.00000000
Si      -1.34928442       1.35011195       1.37243033       0.00000000
Si       0.01819593      -2.70099931       2.67311886       0.00000000
Si       0.00131949       2.71355239      -2.68525574       0.00000000
Si      -2.73269640      -0.01027410      -2.67308969       0.00000000
Si      -2.71899650       2.69429761       0.00939441       0.00000000
Si       2.72319932       2.69164234       0.01347894       0.00000000
Si       2.72679941      -0.01478969      -2.69523366       0.00000000
