10
Lattice="16.290000149 0.0 0.0 0.0 16.290000149 0.0 0.0 0.0 29.1751946751" Properties=species:S:1:pos:R:3:initial_magmoms:R:1 pbc="T T T"
Si      -1.35971002       1.35140212       1.35387491       0.00000000
Si      -1.35917245      -1.34395759      -1.36332767       0.00000000
Si       1.32349735      -1.36490653       1.39183184       0.00000000
Si       1.35609364       1.37728693      -1.35603387       0.00000000
Si       2.69654888       0.01946655       2.70036849       0.00000000
Si       2.69513165      -2.70471017       0.02692870       0.00000000
Si       0.01459584       2.71510319       2.68545997       0.00000000
Si      -2.72319932      -2.69164234      -0.01347894       0.00000000
Si       0.00360009      -2.70643203      -2.70871260       0.00000000
Si      -2.71414208       2.70304859      -0.01531698       0.00000000
