10
Lattice="16.290000149 0.0 0.0 0.0 16.290000149 0.0 0.0 0.0 29.1751946751" Properties=species:S:1:pos:R:3:initial_magmoms:R:1 pbc="T T T"
Si       1.30427515       1.44740496      -1.26573665       0.00000000
Si      -1.04930407       1.61014923       1.31685159       0.00000000
Si       1.49951080      -1.01973772       1.51495116       0.00000000
Si      -1.58346946      -1.30875490      -1.20222225       0.00000000
Si       2.49543254       2.56160415       0.46210591       0.00000000
Si      -1.57258774       0.36048141       3.25125452       0.00000000
Si       2.58745475       0.02427210      -2.61287208       0.00000000
Si       3.01044090       0.81448372       1.97828243       0.00000000
H        0.65446705      -2.27400257      -2.84344365       0.00000000
Si       2.50924646      -2.77061952       0.24066618       0.00000000
