10
Lattice="16.290000149 0.0 0.0 0.0 16.290000149 0.0 0.0 0.0 29.1751946751" Properties=species:S:1:pos:R:3:initial_magmoms:R:1 pbc="T T T"
Si      -1.44546058       1.19070127       1.35985086       0.00000000
Si      -1.35985663      -1.34550514      -1.34060020       0.00000000
Si       1.27806454      -1.49595958       1.33935675       0.00000000
Si       1.30916215       1.36796905      -1.48869348       0.00000000
Si       2.15945129      -0.50891589      -2.59994747       0.00000000
Si       0.36142623      -2.10440738      -2.71901144       0.00000000
Si      -0.01930365       2.55076967       2.63931648       0.00000000
Si      -2.80399447       2.43225992      -0.09621979       0.00000000
Si       2.69117318      -0.20110005       2.68397495       0.00000000
Si      -2.79114654      -0.27069093       2.59390237       0.00000000
