10
Lattice="16.290000149 0.0 0.0 0.0 16.290000149 0.0 0.0 0.0 29.1751946751" Properties=species:S:1:pos:R:3:initial_magmoms:R:1 pbc="T T T"
Si       0.15074766      -0.79583167      -1.27723167       0.00000000
H       -1.40745601       2.03307347      -0.45265315       0.00000000
Si       0.91676863      -0.16749378       2.53900049       0.00000000
H       -1.29238345      -2.67519269       0.43899915       0.00000000
Si      -2.06244434      -0.71149834      -2.07467727       0.00000000
Si       1.00708039      -2.87697693      -0.49058090       0.00000000
Si      -0.79970869       1.46495971       2.64476057       0.00000000
Si       2.78593212       0.73019926       1.26302335       0.00000000
Si       0.86833846      -2.46154934       1.87056761       0.00000000
Si       1.23536845       0.36611775      -2.98389304       0.00000000
