10
Lattice="16.290000149 0.0 0.0 0.0 16.290000149 0.0 0.0 0.0 29.1751946751" Properties=species:S:1:pos:R:3:initial_magmoms:R:1 pbc="T T T"
Si      -2.27752773       0.44533602      -0.06841583       0.00000000
Si       0.28052358      -0.81422308      -2.15625111       0.00000000
Si       1.27286152       2.00297118       0.11255790       0.00000000
Si       1.04905320      -1.54789210       1.47897814       0.00000000
H       -1.02818734       2.10228968      -2.24103423       0.00000000
Si      -2.53103271       1.21281983       2.11981129       0.00000000
Si       3.34804463       1.26593012       0.95583773       0.00000000
Si       2.58954965      -0.23910462       2.67314804       0.00000000
Si       1.93488712      -2.47578680      -2.05139546       0.00000000
Si       1.19216085       0.91455319      -3.45387625       0.00000000
