10
Lattice="16.290000149 0.0 0.0 0.0 16.290000149 0.0 0.0 0.0 29.1751946751" Properties=species:S:1:pos:R:3:initial_magmoms:R:1 pbc="T T T"
Si      -1.16479691       0.15600933      -2.01941945       0.00000000
Si       0.22914003       1.85510522       1.43363989       0.00000000
Si       2.31034882      -0.17847324      -0.59771221       0.00000000
Si      -1.15940492      -2.05723154       0.59669108       0.00000000
H       -2.71897696       0.59111524       0.01021132       0.00000000
H       -2.19241899      -0.95648365      -1.80752001       0.00000000
Si      -3.17011222      -0.69237388       0.67444298       0.00000000
Si       1.66417338       0.66626101       2.88186738       0.00000000
Si       1.88602690      -1.99415666      -2.08156261       0.00000000
Si       0.32325388      -0.91639396      -3.44614482       0.00000000
