10
Lattice="16.290000149 0.0 0.0 0.0 16.290000149 0.0 0.0 0.0 29.1751946751" Properties=species:S:1:pos:R:3:initial_magmoms:R:1 pbc="T T T"
H       -1.12948345       0.05815530       1.00695267       0.00000000
Si       0.22677309      -2.13560273      -0.91012020       0.00000000
Si       2.06200451       0.69362821       0.90186362       0.00000000
Si      -0.23038947       1.51632208      -1.83532397       0.00000000
H       -0.45952461       0.98145622       2.62404618       0.00000000
H       -2.05355000       1.82382842       1.45161181       0.00000000
Si       2.35069589      -1.54890208      -1.91190886       0.00000000
H        2.43359570      -2.37503315       0.66198517       0.00000000
Si       3.32223150       0.44847999      -1.03560271       0.00000000
Si       1.71664022       2.81339706       1.83369016       0.00000000
