10
Lattice="16.290000149 0.0 0.0 0.0 16.290000149 0.0 0.0 0.0 29.1751946751" Properties=species:S:1:pos:R:3:initial_magmoms:R:1 pbc="T T T"
Si       0.97060708      -1.45600021      -1.51092498       0.00000000
Si      -1.68927302       0.92942596      -1.31183345       0.00000000
Si      -1.26346870      -1.48362805       1.32691703       0.00000000
Si       1.50395797       1.28409184       1.28642186       0.00000000
H       -1.15626421       1.18467397      -2.69888056       0.00000000
Si      -0.92716165      -2.95481055      -1.83045171       0.00000000
Si      -2.64222173      -2.51094062      -0.30543511       0.00000000
Si      -2.57065976      -0.05761773       2.62747077       0.00000000
H        0.11272680       2.94246273      -2.27195993       0.00000000
Si       0.16322580       2.64060902       2.62919123       0.00000000
