10
Lattice="16.290000149 0.0 0.0 0.0 16.290000149 0.0 0.0 0.0 29.1751946751" Properties=species:S:1:pos:R:3:initial_magmoms:R:1 pbc="T T T"
Si      -0.98148880       1.85938949      -0.89462817       0.00000000
Si      -1.76780711      -1.48400272       0.33291815       0.00000000
Si       0.37307358       0.64848862       2.22577560       0.00000000
Si       1.76632472      -0.97135642      -1.25712996       0.00000000
H       -0.38924955      -1.22515462      -2.57281454       0.00000000
Si       1.85779307      -1.21723768       2.58676029       0.00000000
Si       2.46474218      -2.29879595       0.54723913       0.00000000
Si      -2.46765809       0.84429442      -2.36409520       0.00000000
Si      -1.08615205      -3.53609151      -0.43094680       0.00000000
Si      -3.59029974      -0.59870638      -0.81454226       0.00000000
