10
Lattice="16.290000149 0.0 0.0 0.0 16.290000149 0.0 0.0 0.0 29.1751946751" Properties=species:S:1:pos:R:3:initial_magmoms:R:1 pbc="T T T"
Si      -1.36666585       1.35641944      -1.32922187       0.00000000
Si       1.34889346       1.36125757       1.34850667       0.00000000
Si      -1.37582083      -1.33079527       1.35460429       0.00000000
Si       1.37477827      -1.36472734      -1.33211021       0.00000000
Si       2.66877443      -0.07918569       2.62489226       0.00000000
Si       0.00179190       2.70076799      -2.67145588       0.00000000
Si       0.00996948      -2.71995761      -2.67962493       0.00000000
Si      -2.70708851      -0.00576666      -2.69462098       0.00000000
Si      -2.68506443       2.71880102       0.06120956       0.00000000
Si      -0.06502968      -2.75709882       2.65182097       0.00000000
