10
Lattice="16.290000149 0.0 0.0 0.0 16.290000149 0.0 0.0 0.0 29.1751946751" Properties=species:S:1:pos:R:3:initial_magmoms:R:1 pbc="T T T"
Si       1.27879922      -1.37294565       1.38724841       0.00000000
Si      -1.34720875      -1.21466109      -1.48034354       0.00000000
Si      -1.43275409       1.30736211       1.35131916       0.00000000
Si       1.33556987       1.40648676      -1.35336084       0.00000000
Si      -1.63414603       0.61311488      -3.04573861       0.00000000
Si      -0.29879444       2.59065574      -2.56481470       0.00000000
Si       2.60820984      -2.68714141      -0.03286294       0.00000000
Si      -2.82566180      -2.52090196      -0.10824872       0.00000000
Si      -0.07045588       2.70247030       2.66959450       0.00000000
Si       2.57996298      -0.04550937       2.81252378       0.00000000
