10
Lattice="16.290000149 0.0 0.0 0.0 16.290000149 0.0 0.0 0.0 29.1751946751" Properties=species:S:1:pos:R:3:initial_magmoms:R:1 pbc="T T T"
Si      -1.37324701       1.32387202      -1.35437089       0.00000000
Si       1.29047752       1.45311688       1.31419664       0.00000000
Si      -1.41803800      -1.29959992       1.34728131       0.00000000
Si       1.40427946      -1.38151419      -1.31154170       0.00000000
H        2.22793445       0.56135341       2.09612104       0.00000000
H        0.26380026       0.25330950       3.48048402       0.00000000
Si      -0.07781733      -2.75419920       2.55676819       0.00000000
Si      -2.63407006       2.68529249       0.07740179       0.00000000
Si      -2.67115251      -2.68534641      -0.03638147       0.00000000
Si       2.63484236       2.75859750      -0.07690581       0.00000000
