10
Lattice="16.290000149 0.0 0.0 0.0 16.290000149 0.0 0.0 0.0 29.1751946751" Properties=species:S:1:pos:R:3:initial_magmoms:R:1 pbc="T T T"
Si      -0.73059022       2.18980445       0.40232593       0.00000000
Si       1.90084754       0.54839634       1.28578000       0.00000000
Si      -1.61741782      -1.48696262       0.93815756       0.00000000
Si       0.73067167       0.34473713      -2.26262387       0.00000000
H        1.44923986      -2.17580156      -1.27049220       0.00000000
H        1.72245575       1.93649494       1.89533735       0.00000000
Si       2.53794944       1.67189647      -1.65140354       0.00000000
Si       1.20645370       3.21990261      -0.49775800       0.00000000
H       -0.45281313      -2.59974882      -2.51213014       0.00000000
Si      -0.40231413      -2.90160252       2.38902103       0.00000000
