10
Lattice="16.290000149 0.0 0.0 0.0 16.290000149 0.0 0.0 0.0 29.1751946751" Properties=species:S:1:pos:R:3:initial_magmoms:R:1 pbc="T T T"
Si       1.05658570      -1.46662129      -1.47900732       0.00000000
Si      -1.31341384      -1.35713620       1.38754308       0.00000000
Si      -1.44774118       1.35275419      -1.28254156       0.00000000
Si       1.81441280       0.75443878       1.38395453       0.00000000
Si       2.15590007      -1.19623987       2.75740600       0.00000000
Si       0.28377180      -2.66175344       2.59848871       0.00000000
Si       2.43261830      -0.14792949      -2.83515789       0.00000000
Si      -2.70234812       0.11924280       2.60108531       0.00000000
Si       2.27797733      -3.00133479      -0.23628990       0.00000000
Si      -0.14542083       2.58709637      -2.78407213       0.00000000
