10
Lattice="16.290000149 0.0 0.0 0.0 16.290000149 0.0 0.0 0.0 29.1751946751" Properties=species:S:1:pos:R:3:initial_magmoms:R:1 pbc="T T T"
Si      -1.31219209      -1.35975889      -1.34564459       0.00000000
Si       1.31709538      -1.39132891       1.34173803       0.00000000
Si      -1.41863095       1.33074640       1.30232234       0.00000000
Si       1.30891780       1.28950012      -1.47030728       0.00000000
Si      -0.04540023       2.65737143       2.66614599       0.00000000
Si       2.69555519      -0.02736720       2.64659861       0.00000000
Si       2.68079645       2.69581583      -0.15818791       0.00000000
Si       2.64430685      -2.75024073      -0.02444881       0.00000000
Si      -2.76993534      -0.04483008       2.64916603       0.00000000
Si      -2.77011453       2.64942191      -0.10581843       0.00000000
