10
Lattice="16.290000149 0.0 0.0 0.0 16.290000149 0.0 0.0 0.0 29.1751946751" Properties=species:S:1:pos:R:3:initial_magmoms:R:1 pbc="T T T"
Si       1.35974260      -1.35745386      -1.33943319       0.00000000
Si       1.37344249       1.34711785       1.34305091       0.00000000
Si      -1.34376211      -1.35558377       1.36563251       0.00000000
Si      -1.33004593       1.36992385      -1.37240116       0.00000000
Si       0.00293220       2.70431921       2.67516113       0.00000000
Si       2.70821252       0.01630629      -2.67661989       0.00000000
Si       0.04698036      -2.70381422       2.69826788       0.00000000
Si       0.00405621      -2.72916147      -2.67743679       0.00000000
Si      -2.68918580       2.72518670      -0.01838037       0.00000000
Si      -2.70107750      -2.71808426       0.01557955       0.00000000
