10
Lattice="16.290000149 0.0 0.0 0.0 16.290000149 0.0 0.0 0.0 29.1751946751" Properties=species:S:1:pos:R:3:initial_magmoms:R:1 pbc="T T T"
Si      -0.31312312       1.53800407      -0.76199773       0.00000000
Si      -1.76434874       0.09016678       0.65644188       0.00000000
Si       0.88012753       0.26686278      -2.42232889       0.00000000
Si       2.22034820      -1.18773649      -1.21284202       0.00000000
Si      -1.24934038      -1.65695366       2.17261840       0.00000000
Si       3.07221747       0.47783457       0.18497073       0.00000000
H        2.56196579       1.81977221      -0.28912618       0.00000000
Si       1.30871092      -2.91651276       0.08478312       0.00000000
Si       1.02818734      -2.10228968       2.24103423       0.00000000
Si       2.30104886      -0.09931850       2.35359213       0.00000000
