10
Lattice="16.290000149 0.0 0.0 0.0 16.290000149 0.0 0.0 0.0 29.1751946751" Properties=species:S:1:pos:R:3:initial_magmoms:R:1 pbc="T T T"
Si       1.30447063      -1.38113137       1.37280961       0.00000000
Si      -1.37305153      -1.38437308      -1.30853666       0.00000000
Si      -1.32133078       1.37080351       1.37587301       0.00000000
Si       1.35474157       1.34763913      -1.37298466       0.00000000
Si      -2.68195304       2.69563664      -0.01490852       0.00000000
Si       2.68350059      -0.00832419       2.69462098       0.00000000
Si      -2.69654888      -0.01946655      -2.70036849       0.00000000
Si      -0.00141723      -2.72417672      -2.67343979       0.00000000
Si       2.69648535       2.71243163      -0.02252325       0.00000000
Si      -2.66462048       0.02166570       2.74506489       0.00000000
