10
Lattice="16.290000149 0.0 0.0 0.0 16.290000149 0.0 0.0 0.0 29.1751946751" Properties=species:S:1:pos:R:3:initial_magmoms:R:1 pbc="T T T"
Si       1.34586352       1.33016322      -1.34699248       0.00000000
Si      -1.35637057       1.39506258       1.28913515       0.00000000
Si       1.37047771      -1.36073303       1.31335056       0.00000000
Si      -1.30116376      -1.32743627      -1.42527536       0.00000000
Si      -2.68076876       0.01129060       2.65100406       0.00000000
Si      -0.01695789      -2.72010097       2.61733589       0.00000000
Si       0.03637557       2.73835228       2.61838620       0.00000000
Si       2.72616410       0.01097457       2.65135417       0.00000000
Si      -2.57996298       0.04550937      -2.81252378       0.00000000
Si      -2.65041886       2.74797967      -0.14292928       0.00000000
