10
Lattice="16.290000149 0.0 0.0 0.0 16.290000149 0.0 0.0 0.0 29.1751946751" Properties=species:S:1:pos:R:3:initial_magmoms:R:1 pbc="T T T"
Si      -1.33758820      -1.44645427       1.25748007       0.00000000
Si       1.34426710      -1.36417348      -1.35124914       0.00000000
Si      -1.38732157       1.34342002      -1.34593926       0.00000000
Si       1.25858170       1.36721971       1.45441263       0.00000000
Si      -2.69977430      -0.07685622       2.51980321       0.00000000
Si       2.63702522       2.69518052       0.06602347       0.00000000
Si      -0.02725317       2.70689303      -2.68817326       0.00000000
Si       2.69243480      -0.01040931      -2.70812910       0.00000000
Si       2.68739390      -2.72292239       0.01601718       0.00000000
Si      -0.02653641      -2.71244792      -2.70597013       0.00000000
