10
Lattice="16.290000149 0.0 0.0 0.0 16.290000149 0.0 0.0 0.0 29.1751946751" Properties=species:S:1:pos:R:3:initial_magmoms:R:1 pbc="T T T"
Si       0.90041347      -0.74342674      -0.97754407       0.00000000
Si      -1.08160714       1.71206273       0.79025566       0.00000000
Si      -1.91541080      -0.28548225       1.87959441       0.00000000
Si      -1.33325506       2.22441581      -1.50637365       0.00000000
Si       2.30225285      -1.91339084       0.48372473       0.00000000
Si      -0.69367708      -1.87258439      -2.31694809       0.00000000
Si       2.05143230       0.89598259      -2.16056904       0.00000000
Si       0.86064958       2.56393199       1.85158914       0.00000000
Si      -0.48783663      -1.65218069       3.21388401       0.00000000
Si      -3.22385619      -1.73193653       0.50948642       0.00000000
