10
Lattice="16.290000149 0.0 0.0 0.0 16.290000149 0.0 0.0 0.0 29.1751946751" Properties=species:S:1:pos:R:3:initial_magmoms:R:1 pbc="T T T"
Si       2.07518312      -0.73704106       0.84327983       0.00000000
Si       0.77116861       0.57715308      -2.16862140       0.00000000
Si      -1.27286152      -2.00297118      -0.11255790       0.00000000
Si      -0.57000340       1.50522696       1.78858531       0.00000000
H        0.71967592       1.53498880       2.59627140       0.00000000
H        0.26091693       1.91909071      -2.64271831       0.00000000
H       -2.30104886       0.09931850      -2.35359213       0.00000000
Si      -0.05038497       3.49868315       0.08259498       0.00000000
Si       1.31668813      -2.24207580       2.56059014       0.00000000
Si       3.14116815      -1.41425057      -1.21748087       0.00000000
