10
Lattice="10.86 0.0 0.0 0.0 10.86 0.0 0.0 0.0 10.86" Properties=species:S:1:pos:R:3:initial_magmoms:R:1 pbc="T T T"
Si      -1.61896536      -1.05262722      -1.37914398       0.00000000
Si      -1.19900916       1.55284968       1.50748746       0.00000000
Si       1.40617452       1.44270756      -1.44785520       0.00000000
Si       0.99799056      -1.46477508       1.84572216       0.00000000
Si       0.00971970      -2.48452908      -2.69615790       0.00000000
Si      -2.70528030      -2.48452908       0.01884210       0.00000000
Si      -2.70528030       0.23047092      -2.69615790       0.00000000
Si       2.72471970       0.23047092      -2.69615790       0.00000000
Si      -2.70528030       0.23047092       2.73384210       0.00000000
Si       0.00971970       2.94547092      -2.69615790       0.00000000
