10
Lattice="16.28999089631971 0.0 0.0 0.0 16.28999089631971 0.0 0.0 0.0 34.45770212530097" Properties=species:S:1:pos:R:3:initial_magmoms:R:1 pbc="T T T"
Si       1.37209041       1.33548678       1.35608362       0.00000000
Si       1.35246096      -1.35842799      -1.35990843       0.00000000
Si      -1.36174626       1.35772263      -1.35866795       0.00000000
Si      -1.35180936      -1.39314361       1.35125954       0.00000000
Si      -0.12929373       2.45561976       2.72870696       0.00000000
Si      -2.71257822      -0.12160485       2.70151981       0.00000000
Si       2.70954828      -2.71465990       0.00065470       0.00000000
Si       2.71231758       2.71386513      -0.00334240       0.00000000
Si       2.71103067       0.00008145      -2.71716362       0.00000000
Si      -2.71604799      -2.71432844      -0.00217084       0.00000000
