10
Lattice="16.28999089631971 0.0 0.0 0.0 16.28999089631971 0.0 0.0 0.0 34.45770212530097" Properties=species:S:1:pos:R:3:initial_magmoms:R:1 pbc="T T T"
Si      -1.33806060       0.01294240      -1.92797843       0.00000000
Si      -0.28551483       1.21936351       1.98679776       0.00000000
Si       2.16334458       0.50318995      -0.78019173       0.00000000
Si      -0.28430937      -2.23513365       0.72809165       0.00000000
Si       1.12194117      -0.23098894       3.23209981       0.00000000
Si      -1.00312191      -2.31076812      -2.45742132       0.00000000
Si      -2.20318992      -2.89750134      -0.49753504       0.00000000
Si      -0.36683451      -2.04349809       3.03303755       0.00000000
Si       2.19752100       2.89309586      -0.81161717       0.00000000
Si      -0.57210480       1.67629801      -3.40545660       0.00000000
