10
Lattice="16.28999089631971 0.0 0.0 0.0 16.28999089631971 0.0 0.0 0.0 34.45770212530097" Properties=species:S:1:pos:R:3:initial_magmoms:R:1 pbc="T T T"
Si      -2.36265110       0.06969676       0.17177174       0.00000000
Si       0.41370084      -2.23458957      -0.74473473       0.00000000
Si       1.22355819       0.50894358       1.99337918       0.00000000
Si      -0.25790328       2.04248744      -1.36083879       0.00000000
Si       1.49436315      -0.33213192      -3.14616225       0.00000000
Si      -0.91833246      -3.43413630       0.80589719       0.00000000
Si      -2.95750556      -2.27324574       0.45501421       0.00000000
Si       3.53310552       0.17353574       1.55001168       0.00000000
Si       2.77457796      -2.50436826      -1.00647558       0.00000000
Si      -3.03815735       1.99101104      -1.37121056       0.00000000
