10
Lattice="16.28999089631971 0.0 0.0 0.0 16.28999089631971 0.0 0.0 0.0 34.45770212530097" Properties=species:S:1:pos:R:3:initial_magmoms:R:1 pbc="T T T"
Si      -0.39907242      -0.80861931      -2.17452519       0.00000000
Si      -0.59766381      -1.96643106       1.25433307       0.00000000
Si       2.01526848       0.78249015       1.16450524       0.00000000
Si      -1.69432290       1.83674637       0.08161518       0.00000000
Si      -2.01310191      -0.66375234       2.64339274       0.00000000
Si       0.71695548       2.06988885       2.64645603       0.00000000
Si      -2.83845105      -1.08654300      -1.65338661       0.00000000
Si      -3.45348000       0.71172639       1.26607971       0.00000000
Si      -0.49927221       3.54156003       1.17242018       0.00000000
Si       3.00894219       2.55231720       0.00187657       0.00000000
