10
Lattice="16.28999089631971 0.0 0.0 0.0 16.28999089631971 0.0 0.0 0.0 34.45770212530097" Properties=species:S:1:pos:R:3:initial_magmoms:R:1 pbc="T T T"
Si       0.99367371       1.76982705      -1.16262867       0.00000000
Si      -1.29831300       1.28739870       1.48195079       0.00000000
Si      -2.01526848      -0.78249015      -1.16450524       0.00000000
Si       1.41253848      -1.44880002       1.44797892       0.00000000
Si       2.43571338       0.25427061      -2.24610042       0.00000000
Si      -2.51454069       2.75906988       0.00791494       0.00000000
Si      -2.61293229      -2.74892121       0.08982783       0.00000000
Si      -0.70464024       3.51028323      -1.47087060       0.00000000
Si       0.06403599       2.63034630       2.84935033       0.00000000
Si      -2.65072509      -0.08283465       2.84418167       0.00000000
