10
Lattice="16.28999089631971 0.0 0.0 0.0 16.28999089631971 0.0 0.0 0.0 34.45770212530097" Properties=species:S:1:pos:R:3:initial_magmoms:R:1 pbc="T T T"
Si       2.36265110      -0.06969676      -0.17177174       0.00000000
Si      -0.70339473       1.74805384       1.52961271       0.00000000
Si      -0.59485446      -2.34294250       0.28324247       0.00000000
Si      -0.67550625       1.92131428      -1.54298231       0.00000000
Si      -1.73098422       0.15702420      -2.67343677       0.00000000
Si       2.10474782       1.97279068      -1.53261053       0.00000000
Si       2.77635194      -2.30428633      -0.91650647       0.00000000
Si      -3.18783150      -1.32890629      -1.54825434       0.00000000
Si      -1.92972222       3.27177157       0.08145805       0.00000000
Si       1.44431864      -3.50383306       0.63412545       0.00000000
