10
Lattice="16.28999089631971 0.0 0.0 0.0 16.28999089631971 0.0 0.0 0.0 34.45770212530097" Properties=species:S:1:pos:R:3:initial_magmoms:R:1 pbc="T T T"
Si      -1.01141352      -2.07327717      -0.11980950       0.00000000
Si       2.18932713      -0.47444625       0.69318598       0.00000000
Si      -0.23250717       0.33783831      -2.32692992       0.00000000
Si      -1.09594233       1.59972687       1.36252722       0.00000000
Si      -3.12194592      -1.31406543      -0.95623623       0.00000000
Si       2.07914157       0.35947143       2.90147797       0.00000000
Si       0.31460877       1.89987012       3.25539323       0.00000000
Si      -0.85731012       3.68294094       0.23021204       0.00000000
Si       1.20982572       2.08042848      -2.94072532       0.00000000
Si       0.51266259      -1.56999762      -3.58932301       0.00000000
