10
Lattice="16.28999089631971 0.0 0.0 0.0 16.28999089631971 0.0 0.0 0.0 34.45770212530097" Properties=species:S:1:pos:R:3:initial_magmoms:R:1 pbc="T T T"
Si       0.83909790       1.69259616      -1.37072816       0.00000000
Si       1.73380986      -1.44650313       0.59694557       0.00000000
Si      -0.72255924       1.22609943       1.87980653       0.00000000
Si      -1.93363929      -1.30943907      -0.44602075       0.00000000
Si      -1.19982366      -3.12359121       0.86385508       0.00000000
Si      -0.92543490       3.23299485      -1.01681290       0.00000000
Si       1.32497973       1.18630296       3.08524100       0.00000000
Si       1.65056796      -1.25758800       2.91912032       0.00000000
Si      -2.27077713       2.67201612       0.84834910       0.00000000
Si      -0.60072633      -2.06091306       2.99503068       0.00000000
