10
Lattice="16.28999089631971 0.0 0.0 0.0 16.28999089631971 0.0 0.0 0.0 34.45770212530097" Properties=species:S:1:pos:R:3:initial_magmoms:R:1 pbc="T T T"
Si       0.08324190      -0.18891513      -2.32217476       0.00000000
Si      -2.25129429      -0.80332506       0.07591036       0.00000000
Si       1.58162868      -1.44474381       1.09716831       0.00000000
Si      -0.32558823       2.44389096       0.16612067       0.00000000
Si      -0.60369111       2.47155138       2.50821200       0.00000000
Si      -1.65056796       1.25758800      -2.91912032       0.00000000
Si      -2.37312720       2.48368743      -1.03931379       0.00000000
Si      -3.34388088       1.21803588       0.61072865       0.00000000
Si      -0.63128637      -2.36613879      -2.69435261       0.00000000
Si       3.65410764      -0.76277925       0.19809744       0.00000000
