10
Lattice="16.28999089631971 0.0 0.0 0.0 16.28999089631971 0.0 0.0 0.0 34.45770212530097" Properties=species:S:1:pos:R:3:initial_magmoms:R:1 pbc="T T T"
Si       1.36234899       1.34294760       1.36739954       0.00000000
Si       1.29831300      -1.28739870      -1.48195079       0.00000000
Si      -1.35241209      -1.37023335       1.36223088       0.00000000
Si      -1.21622769       1.47167118      -1.47403585       0.00000000
Si      -0.71695548      -2.06988885      -2.64645603       0.00000000
Si      -2.41127838      -0.23314248      -2.56484085       0.00000000
Si       2.29198671       0.48242835      -2.64457946       0.00000000
Si       0.59367276       2.22288453      -2.95282139       0.00000000
Si       2.71205694       2.70663237       0.00525136       0.00000000
Si       0.00553860       2.70106119       2.72196703       0.00000000
