10
Lattice="16.28999089631971 0.0 0.0 0.0 16.28999089631971 0.0 0.0 0.0 34.45770212530097" Properties=species:S:1:pos:R:3:initial_magmoms:R:1 pbc="T T T"
Si      -1.42532613       1.23689970       1.32920660       0.00000000
Si      -1.37329587      -1.33537275      -1.35029473       0.00000000
Si       1.33894026       1.37907882      -1.34939883       0.00000000
Si       1.21946940      -1.32758613       1.60393801       0.00000000
Si       2.04330357       0.58775949       2.67181726       0.00000000
Si       0.21279627       2.28175659       2.59290908       0.00000000
Si      -2.31842538      -0.55640124       2.52378689       0.00000000
Si       2.67985161      -2.69472438       0.04679359       0.00000000
Si      -0.64713654      -2.30270553       2.97101365       0.00000000
Si       2.69566920       0.02062314      -2.70786003       0.00000000
