10
Lattice="16.28999089631971 0.0 0.0 0.0 16.28999089631971 0.0 0.0 0.0 34.45770212530097" Properties=species:S:1:pos:R:3:initial_magmoms:R:1 pbc="T T T"
Si       1.35576783       1.35645201       1.35711736       0.00000000
Si      -1.35755973      -1.35742941       1.35701398       0.00000000
Si       1.35793440      -1.35765747      -1.35691061       0.00000000
Si      -1.35806472       1.35835794      -1.35687615       0.00000000
Si       0.00187335      -2.71352304       2.71530290       0.00000000
Si       2.71448415      -2.71456560       0.00020675       0.00000000
Si       2.71529865       0.00094482      -2.71382122       0.00000000
Si      -0.00022806       2.71393915      -2.71581977       0.00000000
Si      -2.71498914      -2.71482624       0.00003446       0.00000000
Si      -2.71487511       0.00127062       2.71523399       0.00000000
