10
Lattice="16.28999089631971 0.0 0.0 0.0 16.28999089631971 0.0 0.0 0.0 34.45770212530097" Properties=species:S:1:pos:R:3:initial_magmoms:R:1 pbc="T T T"
Si      -1.07712738      -1.74125439       1.13689806       0.00000000
Si       0.83650779       1.79210267       1.32272855       0.00000000
Si       1.40141241      -1.26543978      -1.45208284       0.00000000
Si      -1.29810123       1.39217665      -1.45301320       0.00000000
Si       0.42889941       0.48303990       3.29581213       0.00000000
Si      -1.75884759      -0.28217538       3.03445032       0.00000000
Si       0.75337992      -3.43525149       1.21580624       0.00000000
Si      -2.65887009       2.66371541      -0.10275293       0.00000000
Si       2.65233780      -2.67371028      -0.09427633       0.00000000
Si      -0.97301799       3.42053252       1.31480327       0.00000000
