10
Lattice="16.28999089631971 0.0 0.0 0.0 16.28999089631971 0.0 0.0 0.0 34.45770212530097" Properties=species:S:1:pos:R:3:initial_magmoms:R:1 pbc="T T T"
Si       1.21945311       1.76774193      -1.01370723       0.00000000
Si       1.37389860      -1.29046122       1.55622441       0.00000000
Si      -1.34959392       1.40608764       1.54210708       0.00000000
Si      -0.91150695      -1.92609702      -1.32291949       0.00000000
Si       1.48139631      -1.02333780      -2.80498054       0.00000000
Si      -0.32641902       3.10915827      -2.15197226       0.00000000
Si       2.68596036      -2.74764733       0.18529984       0.00000000
Si      -2.72217303      -2.71770305       0.13252095       0.00000000
Si       0.01777239      -2.65894340       2.93758622       0.00000000
Si       2.50735680       1.14026742      -2.84887968       0.00000000
