10
Lattice="16.28999089631971 0.0 0.0 0.0 16.28999089631971 0.0 0.0 0.0 34.45770212530097" Properties=species:S:1:pos:R:3:initial_magmoms:R:1 pbc="T T T"
Si       0.17387946      -2.31623993      -0.09313922       0.00000000
Si      -0.47376207       0.86523683       2.11980456       0.00000000
Si      -1.31281110       1.06783556      -1.61675629       0.00000000
Si       2.29843755       0.49012212      -0.26380831       0.00000000
Si       1.15562889      -0.41504802       3.24150677       0.00000000
Si      -0.58580469      -2.36857970      -2.50931464       0.00000000
Si       3.09265650      -0.24154975       1.87715329       0.00000000
Si       2.24448507       2.82487496      -0.52272363       0.00000000
Si       0.53656002       2.72122169      -2.39729259       0.00000000
Si      -1.74588075      -0.38547516      -3.33933224       0.00000000
