10
Lattice="16.28999089631971 0.0 0.0 0.0 16.28999089631971 0.0 0.0 0.0 34.45770212530097" Properties=species:S:1:pos:R:3:initial_magmoms:R:1 pbc="T T T"
Si      -1.47339792       1.64452437       0.99579369       0.00000000
Si       1.70792505       0.10365327       1.87456896       0.00000000
Si      -1.84937112      -1.65338613       0.78053630       0.00000000
Si       0.83095290       0.91772973      -2.58760259       0.00000000
Si       1.76187753      -2.23109958       2.13348428       0.00000000
Si      -0.53656002      -2.72122169       2.39729259       0.00000000
Si       0.06970491       3.13256700       1.96881083       0.00000000
Si      -2.62444932       2.66018958      -0.90368820       0.00000000
Si      -1.87483239      -1.79763408      -2.91512323       0.00000000
Si       0.86605785       1.57384206       3.51930492       0.00000000
