10
Lattice="16.28999089631971 0.0 0.0 0.0 16.28999089631971 0.0 0.0 0.0 34.45770212530097" Properties=species:S:1:pos:R:3:initial_magmoms:R:1 pbc="T T T"
Si       0.47376207      -0.86523683      -2.11980456       0.00000000
Si      -2.16334458      -0.50318995       0.78019173       0.00000000
Si       1.62939096      -1.28028486       1.12170220       0.00000000
Si       0.03417642       2.38990590      -0.03142544       0.00000000
Si       1.30766346      -0.47383700       3.33350888       0.00000000
Si       2.77219962      -0.37511472      -2.38361288       0.00000000
Si      -3.50140518      -0.49024755      -1.14778670       0.00000000
Si       3.56641857      -1.10678658      -0.24265127       0.00000000
Si      -2.44885941       0.71617356       2.76698948       0.00000000
Si      -1.72105479       3.00001527      -1.51090217       0.00000000
