10
Lattice="16.28999089631971 0.0 0.0 0.0 16.28999089631971 0.0 0.0 0.0 34.45770212530097" Properties=species:S:1:pos:R:3:initial_magmoms:R:1 pbc="T T T"
Si      -1.62939096       1.28028486      -1.12170220       0.00000000
Si      -0.08863389      -2.35882688      -0.02039897       0.00000000
Si       1.93702761       0.17349827      -1.36435348       0.00000000
Si      -0.32172750       0.80644785       2.21180668       0.00000000
Si       1.68173073      -2.53511726       1.62699023       0.00000000
Si      -1.15562889       0.41504802      -3.24150677       0.00000000
Si       3.31260408       1.65964638      -0.25584858       0.00000000
Si       0.84690081      -2.92884656      -2.18224195       0.00000000
Si       1.14280866       0.90517014      -3.50531508       0.00000000
Si       0.19202652       3.14195493       2.13827390       0.00000000
