10
Lattice="16.28999089631971 0.0 0.0 0.0 16.28999089631971 0.0 0.0 0.0 34.45770212530097" Properties=species:S:1:pos:R:3:initial_magmoms:R:1 pbc="T T T"
Si       0.09426697       2.00098720      -1.13086796       0.00000000
Si      -0.95275716      -1.66914070      -1.32603649       0.00000000
Si      -1.43500632       0.15851489       1.84273002       0.00000000
Si       2.11205063      -0.63832579       0.99183105       0.00000000
Si       1.51456601       3.18149092       0.27307744       0.00000000
Si       0.09976485       0.64176263       3.54046196       0.00000000
Si      -1.30279668      -3.36973525       0.25915652       0.00000000
Si       0.61198435       1.59385123      -3.34966955       0.00000000
Si      -2.58071460      -2.02579396       1.87491354       0.00000000
Si       2.45019845      -2.85653509       0.38241179       0.00000000
