10
Lattice="16.28999089631971 0.0 0.0 0.0 16.28999089631971 0.0 0.0 0.0 34.45770212530097" Properties=species:S:1:pos:R:3:initial_magmoms:R:1 pbc="T T T"
Si      -1.07395083      -1.57905504       1.44608172       0.00000000
Si       0.42355629      -1.72284687      -1.67371490       0.00000000
Si       1.69093458       1.14299811       1.41542468       0.00000000
Si      -1.90653273       1.96454842      -0.09279464       0.00000000
Si       2.11177044       1.19433279      -1.94145140       0.00000000
Si       0.48637053       2.86730764      -1.57485570       0.00000000
Si      -2.35628334      -0.13706610       2.80803349       0.00000000
Si       0.37887282       2.60018422       2.78634925       0.00000000
Si      -1.68127461      -3.45773187       0.10280913       0.00000000
Si       1.86372261      -0.79897581      -3.33023540       0.00000000
