10
Lattice="16.28999089631971 0.0 0.0 0.0 16.28999089631971 0.0 0.0 0.0 34.45770212530097" Properties=species:S:1:pos:R:3:initial_magmoms:R:1 pbc="T T T"
Si      -1.74252501       0.49739886      -1.50463086       0.00000000
Si       1.62539991      -1.67297485      -0.36659570       0.00000000
Si       1.02596049       2.16360522      -0.04389914       0.00000000
Si      -2.39290326      -0.90275922       1.48206105       0.00000000
Si      -0.48637053      -2.86730764       1.57485570       0.00000000
Si      -0.26194320       2.79107973       1.79127331       0.00000000
Si      -1.48139631       1.02333780       2.80498054       0.00000000
Si       3.01749444      -1.02252330       1.57706099       0.00000000
Si       1.20456405      -1.72430953       2.99028038       0.00000000
Si      -2.18445642       2.78370036      -1.19540727       0.00000000
