10
Lattice="16.28999089631971 0.0 0.0 0.0 16.28999089631971 0.0 0.0 0.0 34.45770212530097" Properties=species:S:1:pos:R:3:initial_magmoms:R:1 pbc="T T T"
Si       1.34509788       1.35281934       1.37067302       0.00000000
Si      -1.36715454      -1.36415718       1.36557328       0.00000000
Si       1.46460132      -1.16822106      -1.45676220       0.00000000
Si      -1.31804019       1.45878579      -1.34550510       0.00000000
Si      -0.16389369      -2.36729538      -2.58468643       0.00000000
Si       2.71899648       2.69260668       0.01369350       0.00000000
Si       2.70477531      -2.72150514      -0.01919295       0.00000000
Si       2.70425403      -0.00542457       2.72723906       0.00000000
Si      -0.00917127       2.70904329       2.72761809       0.00000000
Si      -2.73173526       2.71388142       0.01035110       0.00000000
