10
Lattice="16.28999089631971 0.0 0.0 0.0 16.28999089631971 0.0 0.0 0.0 34.45770212530097" Properties=species:S:1:pos:R:3:initial_magmoms:R:1 pbc="T T T"
Si       1.35842310      -1.35796698       1.36163132       0.00000000
Si      -1.35829278       1.36055709       1.36194144       0.00000000
Si       1.36715454       1.36415718      -1.36557328       0.00000000
Si      -1.36578618      -1.36479249      -1.39444541       0.00000000
Si       2.71192662      -2.71223613       0.00213638       0.00000000
Si      -2.71428867       2.71435383       0.00692600       0.00000000
Si       2.71225242       2.71697652       0.00509974       0.00000000
Si      -2.71643895      -2.71466334       0.00461733       0.00000000
Si      -0.00019548      -2.71463076       2.71912771       0.00000000
Si       2.71479366       0.00057015       2.71916217       0.00000000
