10
Lattice="16.28999089631971 0.0 0.0 0.0 16.28999089631971 0.0 0.0 0.0 34.45770212530097" Properties=species:S:1:pos:R:3:initial_magmoms:R:1 pbc="T T T"
Si       1.62849501       1.19907432       1.12792423       0.00000000
Si       1.28790369      -0.62747451      -1.83517245       0.00000000
Si      -1.54587213       1.34141634      -1.13826504       0.00000000
Si      -1.21945311      -1.76774193       1.01370723       0.00000000
Si       0.26194320      -2.79107973      -1.79127331       0.00000000
Si       0.16389369       2.36729538       2.58468643       0.00000000
Si      -1.92251322      -0.00737937      -2.98668058       0.00000000
Si       0.27717435       0.87184080      -3.46085329       0.00000000
Si      -2.56904703      -0.36165429       2.55581431       0.00000000
Si       2.86866900      -0.35420976       2.56549348       0.00000000
