10
Lattice="16.28999089631971 0.0 0.0 0.0 16.28999089631971 0.0 0.0 0.0 34.45770212530097" Properties=species:S:1:pos:R:3:initial_magmoms:R:1 pbc="T T T"
Si      -1.53477117      -0.48324774      -1.69773193       0.00000000
Si      -1.36730997      -0.23013046       1.95261401       0.00000000
Si       1.91773862      -1.50793665       0.03704205       0.00000000
Si       0.21563725       2.31960152      -1.04868629       0.00000000
Si       0.47282377       0.66324409       3.14657716       0.00000000
Si       2.34842993       1.54755326       1.79976125       0.00000000
Si       2.01228578      -1.28008842      -2.54863090       0.00000000
Si      -0.09976485      -0.64176263      -3.54046196       0.00000000
Si      -3.13659945       1.28668520      -1.75737825       0.00000000
Si      -3.27670974       1.18405820       1.72932966       0.00000000
