10
Lattice="16.28999089631971 0.0 0.0 0.0 16.28999089631971 0.0 0.0 0.0 34.45770212530097" Properties=species:S:1:pos:R:3:initial_magmoms:R:1 pbc="T T T"
Si      -2.02476555      -0.35360703       0.99165876       0.00000000
Si       1.53098307      -1.38533418       1.11246753       0.00000000
Si      -0.25625799      -0.85709835      -2.17893401       0.00000000
Si       0.69090777       2.22422031       0.37803566       0.00000000
Si       1.58594553       0.18282267      -3.14530081       0.00000000
Si       3.52111608      -1.03426839      -0.23855081       0.00000000
Si       3.27640770       0.87847083      -1.66396337       0.00000000
Si      -2.73929382      -2.53083069       0.61948092       0.00000000
Si      -0.29043441      -3.24700425      -2.14750857       0.00000000
Si      -0.76409874       3.75979716      -0.76003396       0.00000000
