10
Lattice="16.28999089631971 0.0 0.0 0.0 16.28999089631971 0.0 0.0 0.0 34.45770212530097" Properties=species:S:1:pos:R:3:initial_magmoms:R:1 pbc="T T T"
Si      -0.67103397       0.44813790       2.19282047       0.00000000
Si      -0.86086134       1.45106433      -1.62812734       0.00000000
Si       2.22358500       0.72363438      -0.19909671       0.00000000
Si      -0.02119329      -2.22482304      -0.84125081       0.00000000
Si       0.86594382       2.98489815      -1.61420642       0.00000000
Si      -2.09367225      -2.90678760       0.05782006       0.00000000
Si       3.69623358      -1.01330316       0.34678251       0.00000000
Si       2.85154821       0.76491324      -2.58415682       0.00000000
Si      -2.87072154      -0.43108227       2.66699318       0.00000000
Si       0.33969537      -1.05117741       3.81850131       0.00000000
