10
Lattice="16.28999089631971 0.0 0.0 0.0 16.28999089631971 0.0 0.0 0.0 34.45770212530097" Properties=species:S:1:pos:R:3:initial_magmoms:R:1 pbc="T T T"
Si       1.35395964       1.34996859       1.37034912       0.00000000
Si       1.35503478      -1.35920502      -1.36283734       0.00000000
Si      -1.36189287       1.35711990      -1.36225156       0.00000000
Si      -1.37771046      -1.35822762       1.39240206       0.00000000
Si      -0.11530062       2.68579746       2.70734317       0.00000000
Si       2.71238274      -2.71293660      -0.00489300       0.00000000
Si      -2.71743264      -2.71187775      -0.00220529       0.00000000
Si       2.71150308       2.71792134      -0.00509974       0.00000000
Si       2.71187775       0.00006516      -2.72009253       0.00000000
Si      -2.71862181       2.71557558      -0.00379035       0.00000000
