10
Lattice="16.28999089631971 0.0 0.0 0.0 16.28999089631971 0.0 0.0 0.0 34.45770212530097" Properties=species:S:1:pos:R:3:initial_magmoms:R:1 pbc="T T T"
Si      -0.79972497      -1.71585828      -1.34853738       0.00000000
Si      -0.51315129      -1.04730039       2.13834282       0.00000000
Si      -1.31883840       1.62354285      -1.25415769       0.00000000
Si       2.43470340       0.09231543      -0.24592476       0.00000000
Si       1.04054004      -3.06554994      -1.79741812       0.00000000
Si       0.18860562       1.75345560      -3.29943020       0.00000000
Si       3.17409021       0.17541072       2.04031060       0.00000000
Si      -2.55834450      -2.85552297      -0.28593017       0.00000000
Si      -2.66853006      -2.02160529       1.92236182       0.00000000
Si       2.91232620       2.04336873      -1.52616694       0.00000000
