10
Lattice="16.28999089631971 0.0 0.0 0.0 16.28999089631971 0.0 0.0 0.0 34.45770212530097" Properties=species:S:1:pos:R:3:initial_magmoms:R:1 pbc="T T T"
Si       2.29154688      -0.04629618      -0.61631080       0.00000000
Si      -1.23243624      -1.99966266      -0.59904749       0.00000000
Si      -1.16007606       1.98310455      -0.83001759       0.00000000
Si       0.75968415       0.05233977       2.41617542       0.00000000
Si       0.34013520      -3.24861696       0.57882080       0.00000000
Si       2.51871093      -2.31796926       0.05847475       0.00000000
Si       0.58580469       2.36857970       2.50931464       0.00000000
Si      -0.83559555      -1.93518684      -2.91002349       0.00000000
Si      -1.11812931      -1.05542910       3.27737725       0.00000000
Si      -0.72700641       3.43641527       0.89255836       0.00000000
