10
Lattice="16.28999089631971 0.0 0.0 0.0 16.28999089631971 0.0 0.0 0.0 34.45770212530097" Properties=species:S:1:pos:R:3:initial_magmoms:R:1 pbc="T T T"
Si       1.35713619       1.35764118       1.38545539       0.00000000
Si      -1.36000323      -1.35488817       1.38690261       0.00000000
Si       1.31825196      -1.52866989      -1.34630108       0.00000000
Si      -1.24017399       1.55328408      -1.43756924       0.00000000
Si       2.71570514      -0.15879492      -2.68043399       0.00000000
Si      -2.71422351      -2.70399339       0.00443815       0.00000000
Si      -2.70477531       2.72150514       0.01919295       0.00000000
Si       2.70267390       2.73543309       0.02345537       0.00000000
Si       2.73722499      -2.71878471       0.04027763       0.00000000
Si       0.00151497      -2.71314837       2.74560502       0.00000000
