10
Lattice="16.28999089631971 0.0 0.0 0.0 16.28999089631971 0.0 0.0 0.0 34.45770212530097" Properties=species:S:1:pos:R:3:initial_magmoms:R:1 pbc="T T T"
Si      -1.35627282      -1.35816246      -1.35680724       0.00000000
Si      -1.35584928       1.35900954       1.35784097       0.00000000
Si       1.35879439       1.35703845      -1.35697953       0.00000000
Si       1.36024751      -1.35931905       1.36607636       0.00000000
Si      -2.71319724       2.71274112      -0.00010337       0.00000000
Si      -0.01312974       2.70283680       2.72526118       0.00000000
Si      -2.71379997      -0.00042354      -2.71461375       0.00000000
Si       0.00149868       2.71448415      -2.71457929       0.00000000
Si       0.00144981      -2.71505430      -2.71426917       0.00000000
Si       2.71637446      -0.00084708      -2.71433809       0.00000000
