10
Lattice="16.28999089631971 0.0 0.0 0.0 16.28999089631971 0.0 0.0 0.0 34.45770212530097" Properties=species:S:1:pos:R:3:initial_magmoms:R:1 pbc="T T T"
Si      -0.24013089      -1.41128415      -1.89066071       0.00000000
Si      -2.18505915       1.03276971       0.00420384       0.00000000
Si       1.53236676       0.40169511       1.91943291       0.00000000
Si       2.24129942       1.75270626       0.10526834       0.00000000
Si       1.42544083       2.12858172      -2.03121376       0.00000000
Si       0.52665570       0.40338927      -3.30518463       0.00000000
Si      -1.69694559       3.38586021       0.10295967       0.00000000
Si       1.50976113      -3.10601430      -1.91388522       0.00000000
Si      -3.40850331       0.61724439       1.97983730       0.00000000
Si      -1.53567459       0.96225030       3.58615290       0.00000000
