10
Lattice="16.28999089631971 0.0 0.0 0.0 16.28999089631971 0.0 0.0 0.0 34.45770212530097" Properties=species:S:1:pos:R:3:initial_magmoms:R:1 pbc="T T T"
Si      -2.27501253      -0.43391673       0.49250421       0.00000000
Si       0.31048740      -1.77966621      -1.54949482       0.00000000
Si      -0.04277754       2.32437123      -0.74359763       0.00000000
Si       1.45292139      -0.59587191       1.88349351       0.00000000
Si      -0.53268300       1.62411300       2.85344391       0.00000000
Si      -1.24212879       3.15921744       1.19892196       0.00000000
Si      -2.25948816       0.09027918       2.83952299       0.00000000
Si       0.55519578      -3.69240543      -0.12408225       0.00000000
Si      -0.78216435       2.24127594      -3.02983298       0.00000000
Si       2.16034722      -2.89996209       1.35198316       0.00000000
