10
Lattice="16.28999089631971 0.0 0.0 0.0 16.28999089631971 0.0 0.0 0.0 34.45770212530097" Properties=species:S:1:pos:R:3:initial_magmoms:R:1 pbc="T T T"
Si      -1.60515144      -0.79244334      -1.47606541       0.00000000
Si       0.05608647      -1.25988489       1.97180865       0.00000000
Si       2.03952170      -0.76240458      -0.91437009       0.00000000
Si      -0.70742583       2.30409018       0.53151035       0.00000000
Si       0.13725954       0.52587378       3.46244968       0.00000000
Si      -1.84985982       1.12029588      -2.90147797       0.00000000
Si       3.53689199       0.76598838      -0.05750994       0.00000000
Si      -0.47470689      -2.62581768      -2.51916955       0.00000000
Si      -3.59528445      -1.14350913      -0.12504707       0.00000000
Si      -2.16034722       2.89996209      -1.35198316       0.00000000
