10
Lattice="16.28999089631971 0.0 0.0 0.0 16.28999089631971 0.0 0.0 0.0 34.45770212530097" Properties=species:S:1:pos:R:3:initial_magmoms:R:1 pbc="T T T"
Si       1.82290934       1.53896517       0.05775114       0.00000000
Si      -1.45292139       0.59587191      -1.88349351       0.00000000
Si      -0.62796321      -0.04127886       2.38506010       0.00000000
Si       0.70742583      -2.30409018      -0.53151035       0.00000000
Si      -1.98560439       2.21998491       0.96995040       0.00000000
Si       0.84468537      -1.77821640       2.93093932       0.00000000
Si       2.26679001       1.72033803       2.35649465       0.00000000
Si      -0.89772561      -3.09653352      -2.00757576       0.00000000
Si      -1.14243399      -1.18379430      -3.43298832       0.00000000
Si      -3.71240955       0.68615109       0.95602948       0.00000000
