10
Lattice="16.28999089631971 0.0 0.0 0.0 16.28999089631971 0.0 0.0 0.0 34.45770212530097" Properties=species:S:1:pos:R:3:initial_magmoms:R:1 pbc="T T T"
Si       1.47264858      -1.73693754       0.54587922       0.00000000
Si      -2.22358500      -0.72363438       0.19909671       0.00000000
Si       0.93019158       1.86952185       1.30818739       0.00000000
Si       0.62796321       0.04127886      -2.38506010       0.00000000
Si      -1.35764118       2.26126377      -1.41510970       0.00000000
Si       2.89475322       1.76161689      -0.02856545       0.00000000
Si       3.35686957      -0.36678564       0.72540395       0.00000000
Si      -0.70991820       3.35433906       0.55986906       0.00000000
Si      -3.08444634       0.72742995      -1.42903062       0.00000000
Si       2.45087255       1.58024403      -2.32730896       0.00000000
