10
Lattice="16.28999089631971 0.0 0.0 0.0 16.28999089631971 0.0 0.0 0.0 34.45770212530097" Properties=species:S:1:pos:R:3:initial_magmoms:R:1 pbc="T T T"
Si       1.35734796      -1.35373158       1.35794434       0.00000000
Si      -1.35769005      -1.35588186      -1.35718627       0.00000000
Si       1.35684297       1.35927018      -1.35725519       0.00000000
Si      -1.35503478       1.35920502       1.36283734       0.00000000
Si       2.70006750      -0.00990432       2.72536456       0.00000000
Si       2.71319724      -2.71274112       0.00010337       0.00000000
Si      -0.00060273      -2.71316466      -2.71451038       0.00000000
Si      -2.71507059      -2.71393029      -0.00031012       0.00000000
Si       2.71469592       0.00174303      -2.71447592       0.00000000
Si      -2.71515204       0.00141723      -2.71437254       0.00000000
