10
Lattice="16.28999089631971 0.0 0.0 0.0 16.28999089631971 0.0 0.0 0.0 34.45770212530097" Properties=species:S:1:pos:R:3:initial_magmoms:R:1 pbc="T T T"
Si       1.35853128      -1.35738054      -1.35908145       0.00000000
Si      -1.35900954       1.35907470      -1.35839229       0.00000000
Si       1.36346553       1.36948401       1.35622146       0.00000000
Si      -1.37235105      -1.36790388       1.36631757       0.00000000
Si      -0.07032393       2.64626163       2.68015603       0.00000000
Si       2.62685114      -0.04820211       2.72787997       0.00000000
Si      -2.71507059      -2.71173114      -0.00110265       0.00000000
Si      -0.00042692      -2.71370223      -2.71592314       0.00000000
Si       2.71558277      -2.71435383      -0.00540986       0.00000000
Si       2.71481714       0.00102627      -2.71616435       0.00000000
