10
Lattice="16.28999089631971 0.0 0.0 0.0 16.28999089631971 0.0 0.0 0.0 34.45770212530097" Properties=species:S:1:pos:R:3:initial_magmoms:R:1 pbc="T T T"
Si       1.26509769      -1.35606105      -1.48150973       0.00000000
Si       1.47064491       1.16895411       1.49601643       0.00000000
Si      -1.86437747      -0.87726537       1.25053962       0.00000000
Si      -1.43530538       1.36259334      -1.48467984       0.00000000
Si       2.61014670       2.70374904       0.01664308       0.00000000
Si       2.61377937      -2.82509325      -0.14592845       0.00000000
Si       2.60442891       0.01420488      -2.84675911       0.00000000
Si      -2.84748290       2.63213820      -0.14075979       0.00000000
Si      -3.61426949       0.81746478       1.27376413       0.00000000
Si      -2.77155079      -2.77278606       0.02260427       0.00000000
