10
Lattice="16.28999089631971 0.0 0.0 0.0 16.28999089631971 0.0 0.0 0.0 34.45770212530097" Properties=species:S:1:pos:R:3:initial_magmoms:R:1 pbc="T T T"
Si       2.08586934       0.97785612       0.43744077       0.00000000
Si       0.47552139      -1.98338895      -1.21649540       0.00000000
Si      -1.82865024       1.02765465      -1.15240403       0.00000000
Si      -0.93553470       0.57001968       2.16184298       0.00000000
Si       1.09012680       3.10234483       0.81788847       0.00000000
Si       2.56877010      -0.33024717       2.37909892       0.00000000
Si      -3.70646370      -0.08011422      -0.29120220       0.00000000
Si      -0.84690081       2.92884656       2.18224195       0.00000000
Si      -0.06962346      -1.34265438      -3.51010470       0.00000000
Si      -3.22304166      -0.06586047       2.04265372       0.00000000
