10
Lattice="16.28999089631971 0.0 0.0 0.0 16.28999089631971 0.0 0.0 0.0 34.45770212530097" Properties=species:S:1:pos:R:3:initial_magmoms:R:1 pbc="T T T"
Si       1.81690582       1.38546450       0.55073776       0.00000000
Si      -1.73394018       0.72397647       1.43013327       0.00000000
Si      -0.48290076       1.30810329      -1.94165814       0.00000000
Si       0.22677309      -2.37659697       0.12239383       0.00000000
Si      -2.56877010       0.33024717      -2.37909892       0.00000000
Si      -0.48775518       2.33505747       2.72760431       0.00000000
Si      -3.50430480       0.90026685      -0.21725593       0.00000000
Si       0.85889025      -2.61878040       2.38888491       0.00000000
Si       3.54001967       0.96863598      -0.91299179       0.00000000
Si       0.96655086       3.51342298       1.18541453       0.00000000
