10
Lattice="16.28999089631971 0.0 0.0 0.0 16.28999089631971 0.0 0.0 0.0 34.45770212530097" Properties=species:S:1:pos:R:3:initial_magmoms:R:1 pbc="T T T"
Si      -0.68290124      -1.89617229      -1.28217181       0.00000000
Si      -0.78483102       2.01142404      -1.03610922       0.00000000
Si      -1.87031171       0.26888274       1.59511595       0.00000000
Si       2.43937863       0.27792369      -0.52113858       0.00000000
Si       1.44989145      -2.66822055       1.56627573       0.00000000
Si      -2.91221936      -0.94275117      -1.56358802       0.00000000
Si       2.83845105       1.08654300       1.65338661       0.00000000
Si      -0.61502895       1.79826939       2.91946632       0.00000000
Si       1.14412815       2.92328937       1.73500179       0.00000000
Si       2.24078724      -0.87988806       2.90771968       0.00000000
