10
Lattice="16.28999089631971 0.0 0.0 0.0 16.28999089631971 0.0 0.0 0.0 34.45770212530097" Properties=species:S:1:pos:R:3:initial_magmoms:R:1 pbc="T T T"
Si       1.35705148      -1.35697329       1.35367158       0.00000000
Si       1.35628585       1.35840681      -1.35708290       0.00000000
Si      -1.35895821      -1.35632169      -1.35684169       0.00000000
Si      -1.35853128       1.35738054       1.35908145       0.00000000
Si       2.71179304      -2.71313208       0.00017229       0.00000000
Si       2.71402477       0.00081450      -2.71413134       0.00000000
Si      -0.00137813      -2.71420722      -2.71420026       0.00000000
Si       2.71371526       2.71580364      -0.00010337       0.00000000
Si      -0.00121686       2.71611315      -2.71437254       0.00000000
Si      -2.71625391       0.00112401      -2.71444146       0.00000000
