10
Lattice="16.28999089631971 0.0 0.0 0.0 16.28999089631971 0.0 0.0 0.0 34.45770212530097" Properties=species:S:1:pos:R:3:initial_magmoms:R:1 pbc="T T T"
Si       1.85969898       0.82950309       1.14530574       0.00000000
Si      -1.26338561       1.41768612      -1.37165852       0.00000000
Si       1.43617527      -1.32406749      -1.36028747       0.00000000
Si      -1.75329922      -1.03493628       1.25391648       0.00000000
Si      -2.62685114       0.04820211      -2.72787997       0.00000000
Si      -0.93744063      -1.41081174       3.39039858       0.00000000
Si       2.75279823       2.62280403      -0.04927454       0.00000000
Si      -3.42589193       0.83414574       1.42889279       0.00000000
Si       1.24408359       1.88946081       3.05984566       0.00000000
Si      -2.69717507       2.69446374      -0.04772394       0.00000000
