10
Lattice="16.28999089631971 0.0 0.0 0.0 16.28999089631971 0.0 0.0 0.0 34.45770212530097" Properties=species:S:1:pos:R:3:initial_magmoms:R:1 pbc="T T T"
Si      -1.53150435      -0.21414834       1.82133178       0.00000000
Si      -1.60060653       0.81181215      -1.60824523       0.00000000
Si       1.03804767      -2.24070579      -0.08166480       0.00000000
Si       1.72530648       1.57913631       1.06467468       0.00000000
Si      -2.36537316       2.78769141      -0.52871928       0.00000000
Si      -2.41997072       2.13392484       2.03104147       0.00000000
Si      -2.91652413      -2.19199869       1.16787555       0.00000000
Si       3.81868551       0.23216508       0.44960435       0.00000000
Si       3.37282821      -1.98832482      -0.27076877       0.00000000
Si       0.63263844      -3.24184032      -2.16825212       0.00000000
