10
Lattice="16.28999089631971 0.0 0.0 0.0 16.28999089631971 0.0 0.0 0.0 34.45770212530097" Properties=species:S:1:pos:R:3:initial_magmoms:R:1 pbc="T T T"
Si      -1.35684092       1.35715248      -1.35715181       0.00000000
Si       1.35814726      -1.35770634      -1.35722073       0.00000000
Si      -1.35817670      -1.35736425       1.35784097       0.00000000
Si       1.35900574       1.35692442       1.35894362       0.00000000
Si       0.00100493       2.71355999      -2.71399351       0.00000000
Si      -2.71436807       2.71488077       0.00006892       0.00000000
Si       0.00180798      -2.71391400      -2.71540628       0.00000000
Si      -2.71573643       0.00148239      -2.71413134       0.00000000
Si      -2.71474274      -2.71516833      -0.00006892       0.00000000
Si      -2.71511741       0.00268785       2.71492387       0.00000000
