10
Lattice="16.28999089631971 0.0 0.0 0.0 16.28999089631971 0.0 0.0 0.0 34.45770212530097" Properties=species:S:1:pos:R:3:initial_magmoms:R:1 pbc="T T T"
Si      -1.43378946       1.27677762       1.32393457       0.00000000
Si       1.35146564       1.34763912      -1.35718627       0.00000000
Si       1.26338561      -1.41768612       1.37165852       0.00000000
Si      -1.36346553      -1.36948401      -1.35622146       0.00000000
Si      -2.16250632      -0.58354038       2.80055131       0.00000000
Si      -0.48991361      -2.45262240       2.62557500       0.00000000
Si       2.69693819       2.69949735       0.02505076       0.00000000
Si      -0.00529262       2.70387936      -2.71351110       0.00000000
Si       2.70878102      -0.01106091      -2.71540628       0.00000000
Si      -2.73487176       2.69474067      -0.00465179       0.00000000
