10
Lattice="16.28999089631971 0.0 0.0 0.0 16.28999089631971 0.0 0.0 0.0 34.45770212530097" Properties=species:S:1:pos:R:3:initial_magmoms:R:1 pbc="T T T"
Si       0.34542945       0.15618852       2.37010545       0.00000000
Si       1.04125680      -2.19864501       0.04000541       0.00000000
Si       1.42609176       2.05864616      -0.03132207       0.00000000
Si      -1.94391828       0.26593425      -1.68839389       0.00000000
Si      -0.25174566       1.33069752      -2.98941408       0.00000000
Si      -2.81092095      -1.73136636       0.13765860       0.00000000
Si       2.70630657      -0.11359017       2.10836460       0.00000000
Si      -0.93419892      -3.19477851       0.93618183       0.00000000
Si       3.50637363       1.03863411       0.09213995       0.00000000
Si       0.81140490       3.07169846      -1.96157471       0.00000000
