10
Lattice="16.28999089631971 0.0 0.0 0.0 16.28999089631971 0.0 0.0 0.0 34.45770212530097" Properties=species:S:1:pos:R:3:initial_magmoms:R:1 pbc="T T T"
Si       1.33203330       1.19954673      -1.55063192       0.00000000
Si       0.24793380       0.52717698       2.29746857       0.00000000
Si      -2.03917310       1.16089056      -0.35088298       0.00000000
Si       0.25979292      -2.29239396      -0.65483454       0.00000000
Si       0.41518323      -1.79877438       2.98155772       0.00000000
Si       0.91833246       3.43413630      -0.80589719       0.00000000
Si       0.05240493      -2.15142030      -2.98455554       0.00000000
Si       2.38734837      -2.83610529       0.39212887       0.00000000
Si      -3.25155635       0.09505215      -1.99324135       0.00000000
Si      -1.44431864       3.50383306      -0.63412545       0.00000000
