10
Lattice="16.28999089631971 0.0 0.0 0.0 16.28999089631971 0.0 0.0 0.0 34.45770212530097" Properties=species:S:1:pos:R:3:initial_magmoms:R:1 pbc="T T T"
Si      -1.72311385       0.41682852       1.46372955       0.00000000
Si      -0.24793380      -0.52717698      -2.29746857       0.00000000
Si       1.64726109       1.69482789       0.50094635       0.00000000
Si       0.16724943      -2.32595136       0.68408914       0.00000000
Si       2.49698007      -2.05029198       0.05103189       0.00000000
Si       3.33837486       0.17005131      -0.12291069       0.00000000
Si      -0.56040043      -0.35427492       3.40214866       0.00000000
Si      -2.28710690       0.63371358      -2.64835155       0.00000000
Si      -3.54001967      -0.96863598       0.91299179       0.00000000
Si      -0.50925961      -2.65991265       2.97721604       0.00000000
