10
Lattice="16.28999089631971 0.0 0.0 0.0 16.28999089631971 0.0 0.0 0.0 34.45770212530097" Properties=species:S:1:pos:R:3:initial_magmoms:R:1 pbc="T T T"
Si       0.05114083      -2.30563773      -0.42493262       0.00000000
Si      -1.61153616       0.73710621       1.53660763       0.00000000
Si      -1.16271341       0.77110344      -1.93841912       0.00000000
Si       2.21232046      -0.07374483       0.91492142       0.00000000
Si       0.72764986      -1.97167644      -2.71805952       0.00000000
Si       0.56040043       0.35427492      -3.40214866       0.00000000
Si       1.79141944      -0.45028818       3.24505591       0.00000000
Si      -2.01306837       2.89906192      -1.30374235       0.00000000
Si      -0.65877900       2.40624691       2.86264412       0.00000000
Si      -1.96157568      -0.96348834       3.12180064       0.00000000
