10
Lattice="16.290000149 0.0 0.0 0.0 16.290000149 0.0 0.0 0.0 29.1751946751" Properties=species:S:1:pos:R:3:initial_magmoms:R:1 pbc="T T T"
Si      -1.33501438      -1.36444553       1.36907519       0.00000000
Si       1.35044101      -1.34890324      -1.37336394       0.00000000
Si       1.36039420       1.34547256       1.36764560       0.00000000
Si      -1.36893016       1.34438113      -1.36431963       0.00000000
Si      -2.69689097      -2.70681158      -0.00848998       0.00000000
Si       2.71384886       2.69250896      -0.00752720       0.00000000
Si      -0.00982287       2.73256607       2.67854545       0.00000000
Si       2.72453510      -2.69672807      -0.03708167       0.00000000
Si      -2.76017763      -0.00254124       2.66783815       0.00000000
Si      -0.01907559       2.70891299      -2.72152051       0.00000000
