10
Lattice="16.290000149 0.0 0.0 0.0 16.290000149 0.0 0.0 0.0 29.1751946751" Properties=species:S:1:pos:R:3:initial_magmoms:R:1 pbc="T T T"
Si      -0.47315934       0.20258244      -2.28163151       0.00000000
Si       0.79114015       1.86758336       1.19019040       0.00000000
Si      -1.87201424      -0.81552628       1.19439746       0.00000000
Si       1.61898166      -1.75671362       0.08566421       0.00000000
H        2.79933879       0.71571745      -0.74325267       0.00000000
Si       2.18171972       0.58308427       2.58255322       0.00000000
Si      -0.67724047      -2.21996864       2.63607512       0.00000000
Si      -2.16758000       1.85706002      -2.17263298       0.00000000
Si      -0.49412457      -2.08290458      -2.95082295       0.00000000
Si       1.72320509      -2.42771501      -2.15124757       0.00000000
