10
Lattice="16.290000149 0.0 0.0 0.0 16.290000149 0.0 0.0 0.0 29.1751946751" Properties=species:S:1:pos:R:3:initial_magmoms:R:1 pbc="T T T"
Si      -1.52072038       1.31717683       1.19732081       0.00000000
Si       1.41284800       1.28451538      -1.38153299       0.00000000
Si      -1.22945518      -1.43283583      -1.42719217       0.00000000
Si       0.98170057      -0.86150806       1.98723921       0.00000000
Si      -0.07943004       2.64608246       2.40712861       0.00000000
Si      -0.76457116      -1.18368680       3.48060072       0.00000000
Si       1.09882567      -3.16726473       1.75401270       0.00000000
Si      -2.68239287      -0.12335277       2.70086447       0.00000000
Si      -2.57311955      -2.81116533      -0.11357903       0.00000000
Si       0.06556725       2.61848720      -2.78894438       0.00000000
