10
Lattice="16.290000149 0.0 0.0 0.0 16.290000149 0.0 0.0 0.0 29.1751946751" Properties=species:S:1:pos:R:3:initial_magmoms:R:1 pbc="T T T"
Si      -1.42112332       1.37653759      -1.24868754       0.00000000
Si      -1.20207169      -1.43993827       1.40514944       0.00000000
Si       1.46087092       1.30059361       1.32629764       0.00000000
Si       0.88027903      -1.49512879      -1.64541183       0.00000000
H        0.80612695      -2.59180418      -0.52829363       0.00000000
Si       2.45537543      -0.09376524      -2.85381922       0.00000000
Si      -2.62744670      -0.08610894       2.71105741       0.00000000
Si       0.09532908       2.63955017       2.71717545       0.00000000
Si      -0.09733275       2.79223635      -2.58021425       0.00000000
Si       2.79288795       2.66266568      -0.05877722       0.00000000
