10
Lattice="16.290000149 0.0 0.0 0.0 16.290000149 0.0 0.0 0.0 29.1751946751" Properties=species:S:1:pos:R:3:initial_magmoms:R:1 pbc="T T T"
Si      -1.34364808       1.28145286       1.46334024       0.00000000
Si      -1.37135737      -1.40682070      -1.31693328       0.00000000
Si       1.34042266      -1.33377634       1.42503321       0.00000000
Si       1.34563546       1.42081381      -1.35327973       0.00000000
Si       2.68690520      -0.01493793      -2.66057353       0.00000000
Si       0.06802704      -2.77902516      -2.59474845       0.00000000
Si      -2.67933035      -2.69417054       0.15442431       0.00000000
Si      -2.71841006      -0.01971090      -2.67284461       0.00000000
Si      -2.77614183       2.61040736       0.18890939       0.00000000
Si       2.69006546       2.75501370       0.03544786       0.00000000
