10
Lattice="16.290000149 0.0 0.0 0.0 16.290000149 0.0 0.0 0.0 29.1751946751" Properties=species:S:1:pos:R:3:initial_magmoms:R:1 pbc="T T T"
Si       1.34155319       1.33086043      -1.38310845       0.00000000
Si      -1.32733528      -1.36327753      -1.37728800       0.00000000
Si      -1.35561472       1.38833155       1.32758806       0.00000000
Si       1.36558094      -1.34789977       1.36691622       0.00000000
Si      -2.62915064      -2.67752216       0.08551250       0.00000000
Si       2.70875661       2.69692355      -0.02217315       0.00000000
Si      -2.69613512       0.03344337       2.71110497       0.00000000
Si       0.01071230       2.71731863       2.70541580       0.00000000
Si      -0.04074129       2.67009392      -2.75881808       0.00000000
Si      -2.70636524       0.00373041      -2.73047729       0.00000000
