10
Lattice="16.290000149 0.0 0.0 0.0 16.290000149 0.0 0.0 0.0 29.1751946751" Properties=species:S:1:pos:R:3:initial_magmoms:R:1 pbc="T T T"
Si       0.56172808      -0.46486773       2.16381041       0.00000000
Si      -1.15033465      -1.78847912      -0.96459029       0.00000000
Si       1.78036670       0.53502876      -1.41520117       0.00000000
Si      -1.96167440       1.40859631       0.20930285       0.00000000
H       -2.03582648       0.31192092       1.32642105       0.00000000
Si      -0.38657799       2.80995987      -0.99910454       0.00000000
H        3.02534625       1.12071943      -0.49125193       0.00000000
H       -0.67991203      -3.15613866       1.48565926       0.00000000
Si       0.65617750       1.84577105      -2.97554893       0.00000000
Si      -2.10694862      -0.79382800      -2.80948372       0.00000000
