10
Lattice="16.290000149 0.0 0.0 0.0 16.290000149 0.0 0.0 0.0 29.1751946751" Properties=species:S:1:pos:R:3:initial_magmoms:R:1 pbc="T T T"
Si       1.36256077      -1.33915204       1.36504901       0.00000000
Si       1.35430174       1.37319814      -1.34523905       0.00000000
Si      -1.35523027       1.35479044       1.36452385       0.00000000
Si      -1.33522615      -1.40377447      -1.33981247       0.00000000
Si       2.70555725      -2.67045230      -0.02214397       0.00000000
Si      -2.76771990      -0.07481997      -2.61424332       0.00000000
Si       0.01097946      -2.73057869       2.69260789       0.00000000
Si      -2.72246627       2.70793559       0.02430294       0.00000000
Si       0.00925272       2.71888247      -2.71215527       0.00000000
Si       2.71326242       2.71946891       0.02237737       0.00000000
