10
Lattice="16.290000149 0.0 0.0 0.0 16.290000149 0.0 0.0 0.0 29.1751946751" Properties=species:S:1:pos:R:3:initial_magmoms:R:1 pbc="T T T"
Si       1.43051940      -1.21344211       1.38392536       0.00000000
Si      -1.43559210       1.24594066       1.36703292       0.00000000
Si      -1.35885610      -1.41175657      -1.31127912       0.00000000
Si       1.36801466       1.42773706      -1.29893802       0.00000000
H       -1.18483524      -1.45295398       3.06689646       0.00000000
Si      -0.04621473      -2.41667039       2.77184772       0.00000000
Si       2.57477788      -2.64135836      -0.07839375       0.00000000
Si      -0.01717455       2.68451057       2.53584957       0.00000000
Si       2.56655143       0.02534724      -2.77386081       0.00000000
Si      -2.72856199       2.66012444       0.01123245       0.00000000
