10
Lattice="16.290000149 0.0 0.0 0.0 16.290000149 0.0 0.0 0.0 29.1751946751" Properties=species:S:1:pos:R:3:initial_magmoms:R:1 pbc="T T T"
Si       1.38831526       1.34749252       1.27583126       0.00000000
Si       1.26197002      -1.39556431      -1.36709419       0.00000000
Si      -1.30777750       1.26465787      -1.47433345       0.00000000
Si      -1.41024160      -1.39914811       1.25867625       0.00000000
Si      -2.15140403      -0.64521433      -2.56963153       0.00000000
Si      -0.45778158      -2.33429186      -2.65068197       0.00000000
Si      -0.03538188       2.70990668       2.54544821       0.00000000
Si       2.72050431      -0.05952366       2.58693534       0.00000000
Si       2.58817151      -0.07299549      -2.73074804       0.00000000
Si       2.69013062       2.66173715      -0.18696924       0.00000000
