10
Lattice="16.290000149 0.0 0.0 0.0 16.290000149 0.0 0.0 0.0 29.1751946751" Properties=species:S:1:pos:R:3:initial_magmoms:R:1 pbc="T T T"
Si       0.82642429      -0.96899437      -1.94470178       0.00000000
Si      -1.31564557      -1.34115571       1.41826456       0.00000000
Si       1.59627340       1.14072355       1.33108908       0.00000000
Si      -1.49626909       1.32120046      -1.29499937       0.00000000
H        1.27068517       0.31799709      -2.60642437       0.00000000
H        0.69936229       1.88641460       2.31023779       0.00000000
Si      -1.05135661      -1.67293415      -3.21688614       0.00000000
Si      -2.51273252       0.16522947       2.82167895       0.00000000
Si      -2.51727743       2.81970129       0.17251293       0.00000000
Si       0.16923681      -2.51919965       2.86369123       0.00000000
