10
Lattice="16.290000149 0.0 0.0 0.0 16.290000149 0.0 0.0 0.0 29.1751946751" Properties=species:S:1:pos:R:3:initial_magmoms:R:1 pbc="T T T"
Si      -0.50486946      -0.91251694      -2.09472063       0.00000000
Si       2.05205132       1.00590751       0.73334769       0.00000000
Si      -1.40706994       1.95318731       0.00881091       0.00000000
Si      -0.67449886      -1.76652020       1.50762818       0.00000000
H        1.46836432       1.57029085      -2.38092929       0.00000000
Si      -1.93389995      -0.34000488       2.83900085       0.00000000
H        2.86343994      -0.46921716      -1.91398030       0.00000000
Si       0.26894790       1.20156670      -3.26560872       0.00000000
Si       1.04972761       2.24940467       2.57555701       0.00000000
Si      -3.06491466       1.17432982       1.46625776       0.00000000
