10
Lattice="16.290000149 0.0 0.0 0.0 16.290000149 0.0 0.0 0.0 29.1751946751" Properties=species:S:1:pos:R:3:initial_magmoms:R:1 pbc="T T T"
Si       1.41514489      -1.34459062       1.25789727       0.00000000
Si      -1.49882662       1.25081137       1.26800939       0.00000000
Si      -1.02850174      -1.86527018      -0.94907492       0.00000000
Si       0.87496849       1.72432910      -1.38796787       0.00000000
H       -2.06029406       0.72213571      -1.98506858       0.00000000
Si      -1.87062959      -0.62820919      -2.65936568       0.00000000
Si      -0.07749153       2.65947284       2.52139034       0.00000000
Si       2.65157219      -2.54767457      -0.33388385       0.00000000
Si       2.59472009       2.66305664      -0.10438009       0.00000000
Si      -0.04222368      -2.78358636       2.47412653       0.00000000
