10
Lattice="16.290000149 0.0 0.0 0.0 16.290000149 0.0 0.0 0.0 29.1751946751" Properties=species:S:1:pos:R:3:initial_magmoms:R:1 pbc="T T T"
H       -0.64550755      -0.82604962       1.07784839       0.00000000
Si       1.23756760      -1.36562329      -1.41806034       0.00000000
Si      -1.57972276       1.08686881      -1.32000251       0.00000000
Si       1.27617490       1.46305378       1.29669153       0.00000000
H       -2.08518518      -1.73604161       0.52836278       0.00000000
Si      -3.18005238       1.01112031       0.47307578       0.00000000
H       -1.27891162      -2.48334536       2.18102085       0.00000000
Si       2.50717763      -0.02686221       2.65902724       0.00000000
Si      -0.28157265       2.67652847      -2.59676738       0.00000000
Si       2.55956627      -2.73927756      -0.08274085       0.00000000
