10
Lattice="16.290000149 0.0 0.0 0.0 16.290000149 0.0 0.0 0.0 29.1751946751" Properties=species:S:1:pos:R:3:initial_magmoms:R:1 pbc="T T T"
Si      -0.34443576       0.88273882       2.13524497       0.00000000
Si      -1.85551247      -0.93120157      -1.10652761       0.00000000
Si       1.05508702       1.76223593      -1.18212054       0.00000000
Si       1.60176313      -1.77710870      -0.08702961       0.00000000
Si       2.13772043       0.34194339      -2.68000421       0.00000000
Si      -0.67207654      -2.38268945      -2.51849033       0.00000000
Si       1.27606087       2.56901447       2.20751193       0.00000000
Si       2.22900959      -2.18110070       2.06186936       0.00000000
Si       3.43222158      -0.95179213      -1.25281203       0.00000000
Si      -3.15742557      -2.16849224       0.39322327       0.00000000
