10
Lattice="16.290000149 0.0 0.0 0.0 16.290000149 0.0 0.0 0.0 29.1751946751" Properties=species:S:1:pos:R:3:initial_magmoms:R:1 pbc="T T T"
Si      -1.29314908       1.39918069       1.32219940       0.00000000
Si       1.42112332      -1.37653759       1.24868754       0.00000000
Si       1.32379057       1.41569875      -1.33152671       0.00000000
Si      -1.34480467      -1.08507691      -1.61866898       0.00000000
Si       0.39221433      -1.54518796      -3.11013410       0.00000000
Si      -0.36579195       2.34364232      -2.64645273       0.00000000
Si      -2.17795673       0.75675196      -2.76125712       0.00000000
Si       2.33232077      -0.12536784      -2.73955078       0.00000000
Si      -2.57162087      -0.11445354       2.58556410       0.00000000
Si       2.30140235      -2.87166639      -0.39672430       0.00000000
