10
Lattice="16.290000149 0.0 0.0 0.0 16.290000149 0.0 0.0 0.0 29.1751946751" Properties=species:S:1:pos:R:3:initial_magmoms:R:1 pbc="T T T"
Si       1.21699366      -1.28607271      -1.60469406       0.00000000
Si      -1.29017420       1.34767171      -1.49972171       0.00000000
Si      -1.43811998      -1.42810522       1.34275916       0.00000000
Si       1.31777663       1.70140907       1.13783259       0.00000000
H        2.82901298       0.22778307       0.50665643       0.00000000
H        0.17915612       2.66512547       1.43288134       0.00000000
H       -0.96033428       0.86104054       3.31637355       0.00000000
Si      -2.63203038      -2.57417775      -0.34683471       0.00000000
Si       3.44356952      -1.07638782       0.94930248       0.00000000
Si       2.59595194      -2.73729018      -0.44646800       0.00000000
