10
Lattice="16.290000149 0.0 0.0 0.0 16.290000149 0.0 0.0 0.0 29.1751946751" Properties=species:S:1:pos:R:3:initial_magmoms:R:1 pbc="T T T"
Si      -1.35925390      -1.36407574       1.34237988       0.00000000
Si      -1.35966115       1.35311420      -1.35358316       0.00000000
Si       1.33204960       1.35493054       1.38340021       0.00000000
Si       1.35148357      -1.36036162      -1.35962242       0.00000000
Si       2.68358204       2.70637175       0.00989039       0.00000000
Si      -2.71199180       0.02132361       2.67977081       0.00000000
Si       0.02808396      -2.70650207       2.68966120       0.00000000
Si      -2.70824510      -0.02744865      -2.69841376       0.00000000
Si       2.66439242      -0.01145187       2.75548044       0.00000000
Si      -0.00996948       2.74017351      -2.68910687       0.00000000
