10
Lattice="16.290000149 0.0 0.0 0.0 16.290000149 0.0 0.0 0.0 29.1751946751" Properties=species:S:1:pos:R:3:initial_magmoms:R:1 pbc="T T T"
Si      -1.35550720      -1.33362973       1.32310383       0.00000000
Si      -1.40284594       1.36489024      -1.25856830       0.00000000
Si       1.34157925      -1.15575922      -1.55427932       0.00000000
Si       1.42146541       1.46007271       1.22519188       0.00000000
Si       0.43518735       2.37838889      -2.19800957       0.00000000
Si       2.17924364       0.83839744      -2.64811864       0.00000000
Si       0.07698654      -2.66258423       2.59753468       0.00000000
Si      -2.66331728      -2.62479143      -0.14777236       0.00000000
Si       2.76627009      -2.52322328      -0.21908529       0.00000000
Si      -2.69335604       0.10482615       2.61016754       0.00000000
