10
Lattice="16.290000149 0.0 0.0 0.0 16.290000149 0.0 0.0 0.0 29.1751946751" Properties=species:S:1:pos:R:3:initial_magmoms:R:1 pbc="T T T"
Si       1.35501850       1.35506737      -1.33441505       0.00000000
Si       1.39491271      -1.45046161       1.19416989       0.00000000
Si      -1.37686339      -1.36563958      -1.33695330       0.00000000
Si      -1.30414483       1.34594497       1.43206443       0.00000000
Si      -0.01990638      -2.77724955       2.43294866       0.00000000
Si       2.66172086       2.66902856       0.11241203       0.00000000
Si      -0.01907559       2.70289221      -2.67069732       0.00000000
Si       2.70775640      -0.03033198      -2.67180598       0.00000000
Si      -2.70453098       2.68734992       0.07174180       0.00000000
Si      -2.64780920      -0.03238452       2.74567757       0.00000000
