10
Lattice="16.290000149 0.0 0.0 0.0 16.290000149 0.0 0.0 0.0 29.1751946751" Properties=species:S:1:pos:R:3:initial_magmoms:R:1 pbc="T T T"
Si      -1.60588450       0.18096561       1.68320451       0.00000000
Si       0.83500912       1.93065824      -1.01477162       0.00000000
Si       1.76285495      -1.15838191       1.03560271       0.00000000
Si      -1.56473596      -0.78589477      -1.58774327       0.00000000
H       -0.21626604       3.03864540      -0.98708436       0.00000000
Si      -2.04402035       2.47301424       1.38421711       0.00000000
Si       1.11081511       1.19733130      -3.22260448       0.00000000
Si       0.60909940      -2.80070715       2.21515583       0.00000000
Si      -2.48344310      -2.62023023      -0.41093262       0.00000000
Si      -0.41682852      -0.64886329      -3.64704521       0.00000000
