10
Lattice="16.290000149 0.0 0.0 0.0 16.290000149 0.0 0.0 0.0 29.1751946751" Properties=species:S:1:pos:R:3:initial_magmoms:R:1 pbc="T T T"
Si       1.35358987       1.35229807       1.36043933       0.00000000
Si       1.38738673      -1.36186030      -1.32184055       0.00000000
Si      -1.33713208      -1.35811360       1.38010341       0.00000000
Si      -1.34436484       1.38041461      -1.35644233       0.00000000
Si      -2.68736132       2.71171487       0.03075066       0.00000000
Si       0.05480868      -2.73756711      -2.67093072       0.00000000
Si      -2.70107750       0.03186324      -2.71241785       0.00000000
Si       2.69332346      -0.00677664       2.72300844       0.00000000
Si       2.71231760       2.70523145      -0.00096278       0.00000000
Si       2.71735121      -0.00092853      -2.70063107       0.00000000
