10
Lattice="16.290000149 0.0 0.0 0.0 16.290000149 0.0 0.0 0.0 29.1751946751" Properties=species:S:1:pos:R:3:initial_magmoms:R:1 pbc="T T T"
Si      -0.64496998       0.84128077      -1.07954055       0.00000000
Si       2.14571882       0.25078455       1.31072480       0.00000000
Si       2.25165269      -1.48048408      -0.49574491       0.00000000
Si       0.38890746       1.21946941       2.57476928       0.00000000
Si      -2.07611165       2.06659829       0.20696883       0.00000000
Si       0.41616063      -2.66630976      -1.49942996       0.00000000
Si      -2.08626032      -0.48762486      -2.28934835       0.00000000
Si      -1.37831320      -0.26380026       2.90710392       0.00000000
Si      -0.69209695      -2.31444250       2.14131341       0.00000000
Si       0.85501324       2.20442798      -2.24056743       0.00000000
