10
Lattice="16.290000149 0.0 0.0 0.0 16.290000149 0.0 0.0 0.0 29.1751946751" Properties=species:S:1:pos:R:3:initial_magmoms:R:1 pbc="T T T"
Si      -1.48592331       1.07624773       1.42774650       0.00000000
Si      -1.41841755      -1.43856991      -1.16881665       0.00000000
Si       1.56358100      -1.07800705       1.36224819       0.00000000
Si       1.31380643       1.48673944      -1.27084230       0.00000000
H       -2.52014284      -0.03025053       1.64145480       0.00000000
Si       1.98514992       0.73502110       2.84834508       0.00000000
Si      -0.32247196       0.91419481       3.44702008       0.00000000
Si       0.01717455      -2.68451057      -2.53584957       0.00000000
Si      -2.71138745      -0.02438613      -2.52461712       0.00000000
Si       2.82037080       0.15192054      -2.51726497       0.00000000
