10
Lattice="16.290000149 0.0 0.0 0.0 16.290000149 0.0 0.0 0.0 29.1751946751" Properties=species:S:1:pos:R:3:initial_magmoms:R:1 pbc="T T T"
Si      -1.37072043       1.23890338      -1.44414296       0.00000000
Si       1.19853676      -1.40238982      -1.47492279       0.00000000
Si      -1.36801466      -1.42773706       1.29893802       0.00000000
Si       1.43518159       1.40869405       1.31752262       0.00000000
Si      -0.07138278       2.74351296       2.56394528       0.00000000
Si       2.55339236      -2.76053601      -0.17102499       0.00000000
Si       0.06250473      -2.64117917       2.68286338       0.00000000
Si      -2.77601151       2.55749744      -0.13120085       0.00000000
Si       2.73709470       2.64598472      -0.18222827       0.00000000
Si      -0.03911229       2.63648765      -2.78643532       0.00000000
