10
Lattice="16.290000149 0.0 0.0 0.0 16.290000149 0.0 0.0 0.0 29.1751946751" Properties=species:S:1:pos:R:3:initial_magmoms:R:1 pbc="T T T"
Si       1.00853020      -1.54106659      -1.40802407       0.00000000
Si      -1.68958253       0.92794357      -1.31492602       0.00000000
Si      -1.32379057      -1.41569875       1.33152671       0.00000000
Si       1.48897117       1.28963044       1.29371566       0.00000000
H       -1.15424425       1.17929827      -2.70188560       0.00000000
Si      -0.93157624      -2.96088672      -1.77860739       0.00000000
Si      -2.66859524      -2.50077566      -0.28714227       0.00000000
H        0.11023443       2.94464559      -2.24686927       0.00000000
Si      -2.61693965      -0.01651806       2.65372611       0.00000000
Si       0.14835303       2.65121381       2.63406786       0.00000000
