10
Lattice="16.290000149 0.0 0.0 0.0 16.290000149 0.0 0.0 0.0 29.1751946751" Properties=species:S:1:pos:R:3:initial_magmoms:R:1 pbc="T T T"
Si       1.45031435       1.17503029      -1.42815495       0.00000000
Si      -1.39132891      -1.32713002      -1.35533367       0.00000000
Si      -1.34126974       1.43575174       1.30729379       0.00000000
Si       1.37902996      -1.36700794       1.35318929       0.00000000
Si       0.14605614      -2.58740588      -2.56333260       0.00000000
Si       0.03570768       2.33279318      -2.88793582       0.00000000
H       -0.86120344       3.07848423      -1.90878711       0.00000000
Si       2.66562395       2.66636351      -0.02834078       0.00000000
Si      -2.68690520       0.01493793       2.66057353       0.00000000
Si      -2.61887816      -2.76408723       0.06582507       0.00000000
