10
Lattice="16.290000149 0.0 0.0 0.0 16.290000149 0.0 0.0 0.0 29.1751946751" Properties=species:S:1:pos:R:3:initial_magmoms:R:1 pbc="T T T"
Si       1.38315133      -1.35180937      -1.32471430       0.00000000
Si       1.33973848       1.32493087       1.40132253       0.00000000
Si      -1.35317773      -1.40199886       1.31677281       0.00000000
Si      -1.33095817       1.38978136      -1.37268707       0.00000000
Si      -0.05875803      -2.62484030      -2.65658820       0.00000000
Si      -2.65898414       2.70586676       0.04675033       0.00000000
Si      -2.70482420      -0.03344337       2.67549080       0.00000000
Si       2.70653465       0.04289157      -2.67624644       0.00000000
Si       2.69086367       2.71748386       0.08638775       0.00000000
Si      -2.76333789       0.03818376      -2.65388278       0.00000000
