10
Lattice="16.290000149 0.0 0.0 0.0 16.290000149 0.0 0.0 0.0 29.1751946751" Properties=species:S:1:pos:R:3:initial_magmoms:R:1 pbc="T T T"
Si       2.24202530      -0.50746608       0.28399134       0.00000000
Si      -1.58213368      -1.68137562      -0.43153030       0.00000000
Si      -0.73360387       0.63907300       2.17682079       0.00000000
Si      -0.04004082       1.43467660      -1.95543825       0.00000000
H        0.24562062      -1.11574446      -2.80283178       0.00000000
Si      -2.83224459      -0.56754361      -2.03257746       0.00000000
Si      -1.20858769       3.32804703      -1.32114034       0.00000000
Si       1.29689578      -2.22373163      -2.83051904       0.00000000
Si       3.16791796      -1.32201496      -1.71345918       0.00000000
Si       2.52149214      -2.32705096       1.85790557       0.00000000
