10
Lattice="16.290000149 0.0 0.0 0.0 16.290000149 0.0 0.0 0.0 29.1751946751" Properties=species:S:1:pos:R:3:initial_magmoms:R:1 pbc="T T T"
Si      -0.72309682      -0.06823881      -1.32151962       0.00000000
H       -2.09535014       0.80687629       0.35126934       0.00000000
H        1.15375555       1.64854801      -1.10153865       0.00000000
H        1.80413381       1.22697910      -1.04867320       0.00000000
Si      -1.50299686       0.85498066       1.76016867       0.00000000
Si       0.26091693      -2.67392207       1.45479191       0.00000000
Si       2.25575777      -2.07515054       0.28760907       0.00000000
Si       0.89327845      -0.85214620      -2.83366996       0.00000000
Si       0.43710957       2.27480078       2.13075199       0.00000000
Si      -1.09421560      -1.20938590       2.76143218       0.00000000
