10
Lattice="16.290000149 0.0 0.0 0.0 16.290000149 0.0 0.0 0.0 29.1751946751" Properties=species:S:1:pos:R:3:initial_magmoms:R:1 pbc="T T T"
Si      -0.11712510       2.30575667       0.23322651       0.00000000
Si       1.60032961       0.07574850      -1.79307829       0.00000000
Si       0.28605240      -0.89013448       2.24252216       0.00000000
Si      -2.12667581      -0.96847309      -0.68243698       0.00000000
H        1.09486720      -2.74716192       0.05528699       0.00000000
H        2.53454483      -1.83716993       0.60477261       0.00000000
Si      -1.86339683       1.98357793       1.72658802       0.00000000
Si      -1.90570196      -0.16169454       2.70719549       0.00000000
Si       3.18005238      -1.01112031      -0.47307578       0.00000000
Si      -1.04404240      -2.38876562      -2.18032065       0.00000000
