10
Lattice="16.290000149 0.0 0.0 0.0 16.290000149 0.0 0.0 0.0 29.1751946751" Properties=species:S:1:pos:R:3:initial_magmoms:R:1 pbc="T T T"
Si      -0.83315206       1.84182887      -1.14258815       0.00000000
Si       1.73701901      -0.46011105      -1.49146513       0.00000000
Si       1.34480467       1.08507691       1.61866898       0.00000000
Si      -1.39486384      -1.74192230       0.90968257       0.00000000
H        1.14466573      -0.50821542      -2.90036445       0.00000000
H       -1.97855084      -1.17753895      -2.20459441       0.00000000
Si       2.14580027      -2.52447761      -0.49020162       0.00000000
Si       0.29955681      -3.39639987       0.80068404       0.00000000
Si      -2.55305027       2.60400539       0.23874062       0.00000000
Si       2.66859524       2.50077566       0.28714227       0.00000000
