10
Lattice="16.290000149 0.0 0.0 0.0 16.290000149 0.0 0.0 0.0 29.1751946751" Properties=species:S:1:pos:R:3:initial_magmoms:R:1 pbc="T T T"
Si      -1.33204960      -1.35493054      -1.38340021       0.00000000
Si       1.33234282      -1.36638241       1.37208023       0.00000000
Si      -1.37088496       1.33977758       1.36569086       0.00000000
Si       1.35153244       1.35144122      -1.37350982       0.00000000
Si      -2.69461037       2.70421170      -0.02762891       0.00000000
Si       0.00265527       2.72343390       2.67542370       0.00000000
Si       2.70313656       0.00544738       2.70238158       0.00000000
Si       2.70234975      -2.70618605      -0.00802318       0.00000000
Si      -2.69130350      -2.71900628      -0.04102032       0.00000000
Si      -2.69171075      -0.00181634      -2.73698336       0.00000000
