10
Lattice="16.290000149 0.0 0.0 0.0 16.290000149 0.0 0.0 0.0 29.1751946751" Properties=species:S:1:pos:R:3:initial_magmoms:R:1 pbc="T T T"
Si      -1.34338744      -1.32857657       1.35099240       0.00000000
Si       1.31411431      -1.32824100      -1.39938530       0.00000000
Si      -1.19477377       1.40444236      -1.44167766       0.00000000
Si       1.43334082       1.40605507       1.23586708       0.00000000
Si       2.29622213       0.46325502      -2.55041091       0.00000000
Si       0.67724047       2.21996864      -2.63607512       0.00000000
Si      -2.64404621      -2.65608452      -0.07418377       0.00000000
Si      -2.69913899       0.06558354       2.64111951       0.00000000
Si       0.05722677       2.75178828       2.59473095       0.00000000
Si       2.70580160      -2.64446742      -0.03454635       0.00000000
