10
Lattice="16.290000149 0.0 0.0 0.0 16.290000149 0.0 0.0 0.0 29.1751946751" Properties=species:S:1:pos:R:3:initial_magmoms:R:1 pbc="T T T"
Si      -1.28840055      -1.41022531      -1.31819365       0.00000000
Si       1.41622818      -1.22420980       1.37695249       0.00000000
Si      -1.34078919       1.30219003       1.42357445       0.00000000
Si       1.46646654       1.38157120      -1.21438830       0.00000000
Si       2.08001310       0.65433673       2.67224361       0.00000000
Si       0.42905417       2.30879801       2.57800773       0.00000000
Si      -2.61039922      -0.03657105      -2.65351313       0.00000000
Si       0.11936498       2.73406476      -2.60102696       0.00000000
Si      -2.60896570      -2.73533538       0.12317767       0.00000000
Si       0.10242175      -2.71094924       2.64779479       0.00000000
