10
Lattice="16.290000149 0.0 0.0 0.0 16.290000149 0.0 0.0 0.0 29.1751946751" Properties=species:S:1:pos:R:3:initial_magmoms:R:1 pbc="T T T"
Si      -1.31411431       1.32824100       1.39938530       0.00000000
Si       0.98210782       1.79149602      -1.15102562       0.00000000
Si       1.39168729      -1.31622642       1.36483895       0.00000000
Si      -1.29424051      -1.28539781      -1.50642908       0.00000000
Si      -2.50888808       2.73268336      -0.04229236       0.00000000
Si       1.08633124       1.12049463      -3.38793739       0.00000000
Si      -2.63013455      -2.64392893      -0.09423588       0.00000000
Si       0.11922651       2.73429607       2.63525238       0.00000000
Si       0.04056210      -2.70877942       2.67977372       0.00000000
Si      -0.63687385       3.54820964      -1.23668982       0.00000000
