10
Lattice="16.290000149 0.0 0.0 0.0 16.290000149 0.0 0.0 0.0 29.1751946751" Properties=species:S:1:pos:R:3:initial_magmoms:R:1 pbc="T T T"
Si       1.30777750      -1.26465787       1.47433345       0.00000000
Si      -0.84362653      -1.90987220      -1.09529808       0.00000000
Si      -1.43938441       1.37220445       1.27781518       0.00000000
Si       1.22754925       1.43695720      -1.42115874       0.00000000
Si       2.56974752      -2.66022218       0.10723926       0.00000000
Si      -0.06802704       2.77902516       2.59474845       0.00000000
Si       2.61887816       2.76408723      -0.06582507       0.00000000
Si      -0.10246410      -2.66380598       2.73300970       0.00000000
Si       2.76493431       0.17668134      -2.62915768       0.00000000
Si      -1.40535460      -1.44500446      -3.25910848       0.00000000
