10
Lattice="16.290000149 0.0 0.0 0.0 16.290000149 0.0 0.0 0.0 29.1751946751" Properties=species:S:1:pos:R:3:initial_magmoms:R:1 pbc="T T T"
Si      -1.34019460      -1.34822557       1.37295549       0.00000000
Si       1.32361138      -1.37073835      -1.37394744       0.00000000
Si      -1.36001953       1.32528925      -1.39118998       0.00000000
Si       1.34340373       1.32732550       1.40761562       0.00000000
Si       2.69941592       2.67416642       0.01400409       0.00000000
Si       2.62772363      -2.75129958       0.00107948       0.00000000
Si      -2.73325025       2.68452686      -0.07039974       0.00000000
Si      -2.73224027       0.00516393       2.68677285       0.00000000
Si       2.67770135      -0.02290374      -2.74786571       0.00000000
Si      -0.00649971       2.70031187      -2.73389079       0.00000000
