10
Lattice="16.290000149 0.0 0.0 0.0 16.290000149 0.0 0.0 0.0 29.1751946751" Properties=species:S:1:pos:R:3:initial_magmoms:R:1 pbc="T T T"
Si       0.02096523       2.28548702       0.66919144       0.00000000
Si       2.21732966      -0.34481043       0.79957539       0.00000000
Si       0.15324003      -0.40883013      -2.35884366       0.00000000
Si      -1.52146972      -1.36661210       1.28604258       0.00000000
H       -2.16091739      -0.20699703      -1.43606143       0.00000000
H       -0.86206681       2.46483992      -1.86913802       0.00000000
Si      -0.70682311       1.67104451      -3.14744918       0.00000000
Si       0.49412457       2.08290458       2.95082295       0.00000000
Si       2.11310624       0.32619096       3.03648716       0.00000000
Si       1.86720869       3.15740928      -0.62169422       0.00000000
