10
Lattice="16.290000149 0.0 0.0 0.0 16.290000149 0.0 0.0 0.0 29.1751946751" Properties=species:S:1:pos:R:3:initial_magmoms:R:1 pbc="T T T"
Si       1.37354023       1.38365632       1.30973284       0.00000000
Si       1.37088496      -1.33977758      -1.36569086       0.00000000
Si      -1.32372541       1.36443412      -1.39331977       0.00000000
Si      -1.36645408      -1.35942332       1.37750682       0.00000000
Si      -2.67315644      -2.67338450      -0.06932026       0.00000000
Si       2.67765248       0.00309510       2.68475976       0.00000000
Si      -2.68384268       2.71585253      -0.03976579       0.00000000
Si       2.70322778      -2.70615998       0.00638937       0.00000000
Si      -2.69001659       0.03484431       2.74281840       0.00000000
Si       0.04992885       2.75439468       2.68368028       0.00000000
