10
Lattice="16.290000149 0.0 0.0 0.0 16.290000149 0.0 0.0 0.0 29.1751946751" Properties=species:S:1:pos:R:3:initial_magmoms:R:1 pbc="T T T"
Si       1.36011727      -1.35141841      -1.35355398       0.00000000
Si       1.37375200       1.36383139       1.33225609       0.00000000
Si      -1.35457867       1.35172792      -1.36916271       0.00000000
Si      -1.35345466      -1.34703640       1.37517280       0.00000000
Si       0.00052128       2.72306900       2.65304633       0.00000000
Si       2.68384268      -2.71585253       0.03976579       0.00000000
Si      -2.71384886      -2.69250896       0.00752720       0.00000000
Si      -2.72367173       0.04005711       2.68607265       0.00000000
Si       0.00017919      -2.69431715      -2.71781526       0.00000000
Si       2.71555931       0.02624319      -2.70999631       0.00000000
