10
Lattice="16.290000149 0.0 0.0 0.0 16.290000149 0.0 0.0 0.0 29.1751946751" Properties=species:S:1:pos:R:3:initial_magmoms:R:1 pbc="T T T"
Si      -1.32828661      -1.33154396      -1.33838580       0.00000000
Si       1.31626476      -1.43532983       1.27688157       0.00000000
Si      -1.44309853       1.33058187       1.28289166       0.00000000
Si       1.29921861       1.29065508      -1.47209863       0.00000000
Si       2.63049945      -0.05159369       2.64117202       0.00000000
Si      -0.07473852       2.67998033       2.62101196       0.00000000
Si      -2.74343150       0.01304666      -2.59628307       0.00000000
Si       2.66094872       2.68545377      -0.15308225       0.00000000
Si      -0.14871141       2.67610331      -2.70066316       0.00000000
Si      -0.08164548      -2.76995325       2.61237611       0.00000000
