10
Lattice="16.290000149 0.0 0.0 0.0 16.290000149 0.0 0.0 0.0 29.1751946751" Properties=species:S:1:pos:R:3:initial_magmoms:R:1 pbc="T T T"
Si       0.07415208       1.09667539      -1.11711820       0.00000000
Si       2.03582648      -0.31192092      -1.32642105       0.00000000
Si       0.67911382      -1.56887362       1.97023007       0.00000000
Si      -0.80612695       2.59180418       0.52829363       0.00000000
Si       2.59755455      -0.77678866       0.83738936       0.00000000
Si      -1.18035712      -2.47243106       0.82891688       0.00000000
Si      -2.79933879      -0.71571745       0.74325267       0.00000000
Si      -2.00819864       1.15186591       1.93344307       0.00000000
Si      -1.42625467       0.35878725      -2.82926450       0.00000000
Si       0.88549183      -2.10040004      -2.29101134       0.00000000
