10
Lattice="16.290000149 0.0 0.0 0.0 16.290000149 0.0 0.0 0.0 29.1751946751" Properties=species:S:1:pos:R:3:initial_magmoms:R:1 pbc="T T T"
Si       1.35112519       1.39255299      -1.31493478       0.00000000
Si      -1.32618520       1.34884459       1.38418794       0.00000000
Si      -1.33973848      -1.32493087      -1.40132253       0.00000000
Si       1.38106621      -1.35632170       1.34369277       0.00000000
Si       2.67157631      -0.09625761      -2.52504308       0.00000000
Si      -0.04056210       2.70877942      -2.67977372       0.00000000
Si       0.01857060      -2.72178209       2.67128082       0.00000000
Si       2.71270856       2.68503185       0.08653363       0.00000000
Si      -2.71303436      -0.01257588       2.68788151       0.00000000
Si       0.04341285      -2.67674024      -2.72603683       0.00000000
