10
Lattice="16.290000149 0.0 0.0 0.0 16.290000149 0.0 0.0 0.0 29.1751946751" Properties=species:S:1:pos:R:3:initial_magmoms:R:1 pbc="T T T"
Si       1.30411225      -1.38056122       1.37502693       0.00000000
Si      -1.37354023      -1.38365632      -1.30973284       0.00000000
Si      -1.32361138       1.37073835       1.37394744       0.00000000
Si       1.35408997       1.34783461      -1.37391827       0.00000000
Si      -2.68363091       2.69602760      -0.01724254       0.00000000
Si       2.68334584      -0.01899414       2.70909188       0.00000000
Si      -0.00265527      -2.72343390      -2.67542370       0.00000000
Si      -2.69726564      -0.01922220      -2.70305261       0.00000000
Si       2.69627033       2.70871751      -0.01931398       0.00000000
Si      -2.66380598       0.02251278       2.74690293       0.00000000
