10
Lattice="16.290000149 0.0 0.0 0.0 16.290000149 0.0 0.0 0.0 29.1751946751" Properties=species:S:1:pos:R:3:initial_magmoms:R:1 pbc="T T T"
Si       1.34338744       1.32857657      -1.35099240       0.00000000
Si      -1.35575155       1.39416011       1.29012711       0.00000000
Si       1.37187865      -1.35959925       1.31358397       0.00000000
Si      -1.30065877      -1.32750795      -1.42517617       0.00000000
Si      -2.67989399       0.00942702       2.65144169       0.00000000
Si      -0.01497051      -2.72101972       2.61727754       0.00000000
Si       0.03958470       2.73673306       2.61777352       0.00000000
Si       2.72886825       0.01192917       2.64983706       0.00000000
Si      -2.57586442       0.04775251      -2.81356533       0.00000000
Si      -2.64944472       2.74647448      -0.14281258       0.00000000
