10
Lattice="16.290000149 0.0 0.0 0.0 16.290000149 0.0 0.0 0.0 29.1751946751" Properties=species:S:1:pos:R:3:initial_magmoms:R:1 pbc="T T T"
H        0.65037826      -0.42156891       0.05286545       0.00000000
H       -1.15375555      -1.64854801       1.10153865       0.00000000
Si      -1.87685237      -1.71678683      -0.21998097       0.00000000
Si       0.83240272       1.71549992       1.78765170       0.00000000
Si      -0.09083304       0.82640800      -2.58136287       0.00000000
Si      -2.21692241       0.23967477      -1.58015772       0.00000000
Si       2.62642043       0.19958508       1.12318664       0.00000000
Si       1.39619962      -0.97270849      -2.46390354       0.00000000
Si      -0.26047710      -2.50069421      -1.73213131       0.00000000
Si      -0.37908459       3.04948803       0.25283224       0.00000000
