10
Lattice="16.290000149 0.0 0.0 0.0 16.290000149 0.0 0.0 0.0 29.1751946751" Properties=species:S:1:pos:R:3:initial_magmoms:R:1 pbc="T T T"
Si       1.36844659      -1.35705475       1.34077525       0.00000000
Si       1.39791024       1.33462342      -1.33549454       0.00000000
Si      -1.35148357       1.36036162       1.35962242       0.00000000
Si      -1.35896068      -1.34627077      -1.36761643       0.00000000
Si       0.08164548       2.76995325      -2.61237611       0.00000000
Si       2.69914225      -2.70604595      -0.05021051       0.00000000
Si       0.02067201      -2.71109585       2.69820953       0.00000000
Si      -2.71073747      -0.00371412       2.70200230       0.00000000
Si       2.68291578       0.00910611       2.73499945       0.00000000
Si      -2.71114472       2.71347582       0.00603927       0.00000000
