10
Lattice="16.290000149 0.0 0.0 0.0 16.290000149 0.0 0.0 0.0 29.1751946751" Properties=species:S:1:pos:R:3:initial_magmoms:R:1 pbc="T T T"
Si       1.35575155      -1.39416011      -1.29012711       0.00000000
Si       1.39533625       1.34257294       1.32764641       0.00000000
Si      -1.32414244      -1.38473309       1.36131458       0.00000000
Si      -1.29369317       1.35231436      -1.43293969       0.00000000
Si      -2.64481901       2.67900455      -0.02649108       0.00000000
Si       2.69913899      -0.06558354      -2.64111951       0.00000000
Si       0.03489318       2.69692355       2.68257162       0.00000000
Si      -2.70418889      -0.03635928       2.70203148       0.00000000
Si      -2.63837713      -2.76846924      -0.00297587       0.00000000
Si      -2.65542328      -0.04248432      -2.75195607       0.00000000
