10
Lattice="16.290000149 0.0 0.0 0.0 16.290000149 0.0 0.0 0.0 29.1751946751" Properties=species:S:1:pos:R:3:initial_magmoms:R:1 pbc="T T T"
H        1.99296749      -0.07139907      -1.06454450       0.00000000
Si       1.12418920      -1.31074228       1.56034776       0.00000000
Si       0.75613294       1.88245613      -1.26707870       0.00000000
Si      -0.76828528      -2.04082751      -1.00111763       0.00000000
Si      -1.04275549       0.96418882       1.97644439       0.00000000
H       -1.21990924       1.26130213      -2.33739990       0.00000000
H       -3.02404305       0.03432303      -1.28872670       0.00000000
H       -1.87028750       1.68287105      -2.39026535       0.00000000
H        2.36916875      -0.72505162       2.48429700       0.00000000
Si      -0.65617750      -1.84577105       2.97554893       0.00000000
