10
Lattice="16.290000149 0.0 0.0 0.0 16.290000149 0.0 0.0 0.0 29.1751946751" Properties=species:S:1:pos:R:3:initial_magmoms:R:1 pbc="T T T"
Si       1.34632942      -1.36102788       1.35521697       0.00000000
Si      -1.31423470      -1.38373614      -1.36429045       0.00000000
Si      -1.38004646       1.34837381       1.34071690       0.00000000
Si       1.32414244       1.38473309      -1.36131458       0.00000000
Si      -2.63049945       0.05159369      -2.64117202       0.00000000
Si       2.67989399      -0.00942702      -2.65144169       0.00000000
Si      -0.00902955       2.71683156       2.66585424       0.00000000
Si       2.66492348      -2.73044675      -0.03416415       0.00000000
Si       2.70336788       0.00145470       2.70553250       0.00000000
Si      -0.02922915      -2.70925346       2.70620353       0.00000000
