10
Lattice="16.290000149 0.0 0.0 0.0 16.290000149 0.0 0.0 0.0 29.1751946751" Properties=species:S:1:pos:R:3:initial_magmoms:R:1 pbc="T T T"
Si       1.31953888      -1.44094825       1.27644394       0.00000000
Si      -1.34873056      -1.36182772      -1.34812740       0.00000000
Si       1.38877138       1.35982405      -1.31375902       0.00000000
Si      -1.29091735       1.36769212       1.41251705       0.00000000
Si       2.74572840      -0.05178591       2.45614294       0.00000000
Si       0.01971090       2.70299972      -2.66670032       0.00000000
Si      -2.66431097       2.72018567       0.06724882       0.00000000
Si      -2.71606430      -0.00364896      -2.67521948       0.00000000
Si      -0.06406857      -2.77641876       2.61765682       0.00000000
Si       0.02652012      -2.72593604      -2.68087946       0.00000000
