10
Lattice="16.290000149 0.0 0.0 0.0 16.290000149 0.0 0.0 0.0 29.1751946751" Properties=species:S:1:pos:R:3:initial_magmoms:R:1 pbc="T T T"
Si       1.25592643      -0.22841838      -1.94709414       0.00000000
Si      -0.33699123       2.13021074       0.91636369       0.00000000
Si      -2.06228144      -0.67230460      -0.92564140       0.00000000
Si       1.21148731      -1.33398811       1.53481947       0.00000000
H        2.57799026      -0.68150845      -1.35950572       0.00000000
H       -2.50033583       0.29712960       1.68559687       0.00000000
H        0.37908459      -3.04948803      -0.25283224       0.00000000
H       -1.23585715       2.06247692       2.14061321       0.00000000
H       -3.20943954      -0.59228812       0.05969245       0.00000000
Si       0.28825155      -2.22308003      -2.83419511       0.00000000
