10
Lattice="16.290000149 0.0 0.0 0.0 16.290000149 0.0 0.0 0.0 29.1751946751" Properties=species:S:1:pos:R:3:initial_magmoms:R:1 pbc="T T T"
Si       1.44129034       1.32890563       1.20980780       0.00000000
Si      -1.24071157       1.38956959      -1.37263456       0.00000000
Si       1.52072038      -1.31717683      -1.19732081       0.00000000
Si      -1.16167249      -1.44052960       1.50354366       0.00000000
H        2.08626032       0.48762486       2.28934835       0.00000000
Si       2.50242095      -2.17868489       0.78991840       0.00000000
Si       0.75614923      -2.50086363       2.28327991       0.00000000
Si       0.01014867       2.55422315       2.49631718       0.00000000
Si      -2.41709393      -2.75890701       0.03349312       0.00000000
Si      -2.53428419      -0.04670343      -2.68607265       0.00000000
