10
Lattice="16.290000149 0.0 0.0 0.0 16.290000149 0.0 0.0 0.0 29.1751946751" Properties=species:S:1:pos:R:3:initial_magmoms:R:1 pbc="T T T"
Si       1.32046578      -1.33618726      -1.40726552       0.00000000
Si       1.39152602       1.37551132       1.31192098       0.00000000
Si      -1.34009686       1.36552555      -1.37566878       0.00000000
Si      -1.35601219      -1.34684092       1.39361152       0.00000000
Si      -0.01376505       2.69410538       2.62486309       0.00000000
Si       2.64973142      -2.69532713      -0.04180805       0.00000000
Si      -2.69941592      -2.67416642      -0.01400409       0.00000000
Si      -2.72393237       2.70896186      -0.04005754       0.00000000
Si       2.67095729       0.02925684      -2.77146844       0.00000000
Si       0.03537569      -2.70288569       2.74372283       0.00000000
