10
Lattice="10.86 0.0 0.0 0.0 10.86 0.0 0.0 0.0 10.86" Properties=species:S:1:pos:R:3:initial_magmoms:R:1 pbc="T T T"
Si      -1.38387894      -1.22262966       1.25466666       0.00000000
Si       1.33112106      -1.22262966      -1.46033334       0.00000000
Si       1.11490932       1.79888298       1.13922486       0.00000000
Si      -1.38387894       1.49237034      -1.46033334       0.00000000
Si       0.04561200      -2.31521082       2.61860664       0.00000000
Si      -2.74137894      -2.58012966      -0.10283334       0.00000000
Si      -2.74137894       0.13487034       2.61216666       0.00000000
Si       2.75746260      -2.59325940      -0.25156104       0.00000000
Si      -0.02637894      -2.58012966      -2.81783334       0.00000000
Si       2.43173862       2.98286190      -0.09984684       0.00000000
