10
Lattice="10.86 0.0 0.0 0.0 10.86 0.0 0.0 0.0 10.86" Properties=species:S:1:pos:R:3:initial_magmoms:R:1 pbc="T T T"
Si       1.28865846      -1.34437026      -1.20877230       0.00000000
Si      -1.42634154       1.37062974      -1.20877230       0.00000000
Si      -1.42634154      -1.34437026       1.50622770       0.00000000
Si       2.64615846       0.01312974      -2.56627230       0.00000000
Si      -0.06884154      -2.70187026      -2.56627230       0.00000000
Si      -0.06884154       2.72812974      -2.56627230       0.00000000
Si       2.64615846      -2.70187026       0.14872770       0.00000000
Si      -2.78384154       0.01312974      -2.56627230       0.00000000
Si      -2.75746260       2.59325940       0.25156104       0.00000000
Si       2.41555722      -0.06476904       2.92690032       0.00000000
