10
Lattice="16.28999089631971 0.0 0.0 0.0 16.28999089631971 0.0 0.0 0.0 34.53561885213415" Properties=species:S:1:pos:R:3:initial_magmoms:R:1 pbc="T T T"
Si      -1.29616272       1.35701727       1.41882762       0.00000000
Si      -1.36352187      -1.34931378      -1.36360514       0.00000000
Si       1.35120663       1.36133412      -1.36609170       0.00000000
Si       1.34263809      -1.31181448       1.50354354       0.00000000
Si       0.58606533       2.29010847       2.64325414       0.00000000
Si      -2.19589200      -0.55581317       2.82902133       0.00000000
Si      -0.38571462      -2.34362179       2.85285093       0.00000000
Si       2.32947000       0.48551856       2.93100507       0.00000000
Si       2.70764235      -2.71342108       0.02790480       0.00000000
Si       2.70747945       0.00603382      -2.72175364       0.00000000
