10
Lattice="16.28999089631971 0.0 0.0 0.0 16.28999089631971 0.0 0.0 0.0 34.53561885213415" Properties=species:S:1:pos:R:3:initial_magmoms:R:1 pbc="T T T"
Si      -0.32904171       0.67070817       2.24536905       0.00000000
Si      -1.89843660      -0.79761805      -1.29550086       0.00000000
Si       0.89972928       1.91283044      -1.41019371       0.00000000
Si       1.81017738      -1.78780862       0.02382959       0.00000000
Si      -0.54823995      -2.15166206      -2.82149257       0.00000000
Si      -2.47441842       1.69617344       2.03142077       0.00000000
Si       2.19589200       0.55581317      -2.82902133       0.00000000
Si       0.87697215      -3.41993630      -1.42476775       0.00000000
Si       3.53853009      -0.75600131      -1.32547779       0.00000000
Si       2.78195733       2.84592164      -0.18576720       0.00000000
