10
Lattice="16.28999089631971 0.0 0.0 0.0 16.28999089631971 0.0 0.0 0.0 34.53561885213415" Properties=species:S:1:pos:R:3:initial_magmoms:R:1 pbc="T T T"
Si      -1.33442793      -1.37166687      -1.37669414       0.00000000
Si       1.37914398       1.34514675      -1.37745393       0.00000000
Si       1.44223515      -1.31390253       1.36281082       0.00000000
Si      -1.46668644       1.35487188       1.41637559       0.00000000
Si       0.15697044       2.23524864       2.88538350       0.00000000
Si      -2.69215056      -2.72562651       0.00134689       0.00000000
Si      -2.70282051       2.71663443      -0.01025708       0.00000000
Si      -2.69475696      -0.01353699      -2.73432462       0.00000000
Si       2.74128120       2.69368182      -0.01516115       0.00000000
Si       0.02047653       2.70259245      -2.73532615       0.00000000
