10
Lattice="16.28999089631971 0.0 0.0 0.0 16.28999089631971 0.0 0.0 0.0 34.53561885213415" Properties=species:S:1:pos:R:3:initial_magmoms:R:1 pbc="T T T"
Si       0.41495517       2.26662318      -0.19339957       0.00000000
Si      -2.27654379      -0.49958172       0.38023738       0.00000000
Si       0.87788439      -0.77911812      -2.05839311       0.00000000
Si       1.14388380      -0.83826711       2.00679686       0.00000000
Si       0.13085757      -2.97901746      -1.58245748       0.00000000
Si      -2.04033879      -2.74431114      -0.44540613       0.00000000
Si      -0.29406708       2.84957712       2.03691194       0.00000000
Si      -1.35703845       3.04002351      -1.48002477       0.00000000
Si       3.01837410       0.37190070      -2.13495861       0.00000000
Si      -1.61419239       1.30479642       3.17161487       0.00000000
