10
Lattice="16.28999089631971 0.0 0.0 0.0 16.28999089631971 0.0 0.0 0.0 34.53561885213415" Properties=species:S:1:pos:R:3:initial_magmoms:R:1 pbc="T T T"
Si      -0.87788439       0.77911812       2.05839311       0.00000000
Si      -0.74702682      -2.19989934       0.47593563       0.00000000
Si      -1.46346102       0.63845397      -1.77471737       0.00000000
Si       2.14048971       1.15101882      -0.07656551       0.00000000
Si      -1.03966038      -2.82680370      -1.74204666       0.00000000
Si      -0.46292922       3.04574130       1.86499353       0.00000000
Si       1.41498198       3.38126643       0.32815763       0.00000000
Si      -2.81953836      -1.33776738      -2.09051125       0.00000000
Si       1.00162323      -3.40735649       1.35331352       0.00000000
Si       0.82297080      -2.17409598      -3.03309242       0.00000000
