10
Lattice="16.28999089631971 0.0 0.0 0.0 16.28999089631971 0.0 0.0 0.0 34.53561885213415" Properties=species:S:1:pos:R:3:initial_magmoms:R:1 pbc="T T T"
Si      -0.98945460      -1.73371212       1.15818716       0.00000000
Si      -1.17112068       0.76097106      -1.85186999       0.00000000
Si       1.04787054       1.77158637       1.09111895       0.00000000
Si       1.77012027      -1.13888277      -1.01828329       0.00000000
Si      -2.25096849      -1.35856971      -2.08184280       0.00000000
Si       2.74782978       0.78853374      -1.91382692       0.00000000
Si       0.77988375       1.22491026      -3.21640759       0.00000000
Si       2.66045022      -2.17158732       0.90797646       0.00000000
Si      -1.60585191      -3.11235111      -0.63352175       0.00000000
Si       0.78253902      -2.50711245       2.44481236       0.00000000
