10
Lattice="16.28999089631971 0.0 0.0 0.0 16.28999089631971 0.0 0.0 0.0 34.53561885213415" Properties=species:S:1:pos:R:3:initial_magmoms:R:1 pbc="T T T"
Si      -1.83679524      -1.05564087      -1.05226636       0.00000000
Si       1.13808456      -1.34895861       1.61930700       0.00000000
Si      -1.54880433       1.33040430       1.48271855       0.00000000
Si       1.62184869       0.91095309      -1.88813241       0.00000000
Si      -2.10266433       2.18414691      -0.69492611       0.00000000
Si      -0.11310147       2.48881878      -2.40540720       0.00000000
Si       2.23502058       0.24682608       2.96513461       0.00000000
Si      -1.12777299      -1.63859481      -3.28257787       0.00000000
Si      -0.52843131      -2.54247804       2.84965780       0.00000000
Si      -3.69742275       0.44515683      -1.07312588       0.00000000
