10
Lattice="16.28999089631971 0.0 0.0 0.0 16.28999089631971 0.0 0.0 0.0 34.53561885213415" Properties=species:S:1:pos:R:3:initial_magmoms:R:1 pbc="T T T"
Si       1.17615429      -2.16316539      -0.19716396       0.00000000
Si      -2.15464572      -0.08346996       1.48182063       0.00000000
Si       2.32052679       1.07486307       0.68342574       0.00000000
Si      -0.48508362       0.97365330      -2.43749081       0.00000000
Si      -0.66093417      -3.55807809      -0.84336028       0.00000000
Si      -3.51127692      -1.23613407      -0.27044858       0.00000000
Si       1.99528065       0.86548770       3.07453519       0.00000000
Si      -2.45314368      -2.16911124      -2.26294769       0.00000000
Si       1.79331723      -2.74940991       2.30131678       0.00000000
Si      -2.99429748       2.12502107       1.75081871       0.00000000
