10
Lattice="16.28999089631971 0.0 0.0 0.0 16.28999089631971 0.0 0.0 0.0 34.53561885213415" Properties=species:S:1:pos:R:3:initial_magmoms:R:1 pbc="T T T"
Si      -1.45401282       1.23080147      -1.36718994       0.00000000
Si       1.34258922       1.37140535       1.37836912       0.00000000
Si      -1.36581876      -1.35200150       1.37740212       0.00000000
Si       1.43944956      -1.24644230      -1.62021184       0.00000000
Si       0.35197803       2.16816065      -2.57275309       0.00000000
Si      -0.35986239      -2.45255390      -2.76402323       0.00000000
Si       2.68302816      -2.69550296       0.00097045       0.00000000
Si       2.71948518       2.69278010       0.02707594       0.00000000
Si       2.69905752       0.01194958       2.73655216       0.00000000
Si      -2.73986397      -2.69667584       0.00245894       0.00000000
