10
Lattice="16.28999089631971 0.0 0.0 0.0 16.28999089631971 0.0 0.0 0.0 34.53561885213415" Properties=species:S:1:pos:R:3:initial_magmoms:R:1 pbc="T T T"
Si      -0.49145301      -2.23396010      -0.36179535       0.00000000
Si      -0.42269292       1.18384317      -1.97896114       0.00000000
Si      -1.48227597       0.34590186       1.82361984       0.00000000
Si       2.25864108       0.48387816       0.57342974       0.00000000
Si       0.70372800      -0.58474584      -3.05409009       0.00000000
Si       0.82614735      -2.73358322       1.48765715       0.00000000
Si      -0.67292361       2.54765826       2.04416442       0.00000000
Si       1.99449873      -0.87998580       2.59752895       0.00000000
Si       1.67321106       1.87620075       2.37639726       0.00000000
Si      -2.84003118      -2.06553453      -0.40662260       0.00000000
