10
Lattice="16.28999089631971 0.0 0.0 0.0 16.28999089631971 0.0 0.0 0.0 34.53561885213415" Properties=species:S:1:pos:R:3:initial_magmoms:R:1 pbc="T T T"
Si       2.02209399       0.78898986      -0.84729735       0.00000000
Si      -1.45670067       1.56488256      -0.95501400       0.00000000
Si      -1.23406524      -2.00774250      -0.05826162       0.00000000
Si       0.49972833       1.11571839       2.19981175       0.00000000
Si      -0.45354618       2.83876056       0.83123827       0.00000000
Si       2.49722442      -0.59916249       2.07145366       0.00000000
Si      -2.12346666      -1.57973904       2.15866184       0.00000000
Si       1.53445284       0.29520738      -3.07273933       0.00000000
Si       1.86320133       3.00179088       0.10374506       0.00000000
Si      -0.30859776       1.78285905      -3.08444691       0.00000000
