10
Lattice="16.28999089631971 0.0 0.0 0.0 16.28999089631971 0.0 0.0 0.0 34.53561885213415" Properties=species:S:1:pos:R:3:initial_magmoms:R:1 pbc="T T T"
Si      -1.68034608      -0.92794356       1.26989545       0.00000000
Si      -0.95327451       1.72304217      -1.36857347       0.00000000
Si       1.05505443       1.79175339       1.24180070       0.00000000
Si      -0.49972833      -1.11571839      -2.19981175       0.00000000
Si       1.99749609      -1.71488088      -0.12835809       0.00000000
Si       1.36347300       1.88607249      -2.09606669       0.00000000
Si      -0.25568784      -2.17083798       2.55867912       0.00000000
Si       1.52236566      -0.32672853      -3.04710909       0.00000000
Si       2.44493352       0.56845584       2.58789973       0.00000000
Si      -1.95642900       0.44916417      -3.15482575       0.00000000
