10
Lattice="16.28999089631971 0.0 0.0 0.0 16.28999089631971 0.0 0.0 0.0 34.53561885213415" Properties=species:S:1:pos:R:3:initial_magmoms:R:1 pbc="T T T"
Si      -1.35804843      -1.35664749       1.35794129       0.00000000
Si       1.35728280       1.35822762       1.35773408       0.00000000
Si       1.36202319      -1.35782037      -1.35586915       0.00000000
Si      -1.35801585       1.35912357      -1.36063507       0.00000000
Si       2.71920825      -0.00889434      -2.68084273       0.00000000
Si       0.01065366       2.70925506      -2.71865925       0.00000000
Si       2.71355562       2.71440270       0.00044896       0.00000000
Si      -0.00047241      -2.71401174       2.71425941       0.00000000
Si       2.71507059      -2.71404432       0.00117421       0.00000000
Si       2.71445157       0.00140094       2.71467384       0.00000000
