10
Lattice="16.28999089631971 0.0 0.0 0.0 16.28999089631971 0.0 0.0 0.0 34.53561885213415" Properties=species:S:1:pos:R:3:initial_magmoms:R:1 pbc="T T T"
Si      -1.30671864       1.33545420       1.31511710       0.00000000
Si       1.12744719      -1.44829503       1.41154060       0.00000000
Si      -1.36550925      -1.34338743      -1.33352460       0.00000000
Si       1.35207000       1.37026593      -1.32575408       0.00000000
Si       1.87015716       0.43357464       2.65724107       0.00000000
Si      -2.11988286      -0.36962010       2.66141988       0.00000000
Si       0.32356827       2.35840104       2.57881064       0.00000000
Si      -0.61911774      -2.23919082       2.96744017       0.00000000
Si      -0.00656487      -2.69897607      -2.68321187       0.00000000
Si       2.70873378       0.01342296      -2.68452422       0.00000000
