10
Lattice="16.28999089631971 0.0 0.0 0.0 16.28999089631971 0.0 0.0 0.0 34.53561885213415" Properties=species:S:1:pos:R:3:initial_magmoms:R:1 pbc="T T T"
Si       1.35174420       1.34258922      -1.37530236       0.00000000
Si       1.35470898      -1.35956340       1.35638719       0.00000000
Si      -1.35966114       1.35615879       1.35614544       0.00000000
Si      -1.34819298      -1.36471104      -1.36272102       0.00000000
Si      -0.04887000       2.69065188      -2.73028049       0.00000000
Si       2.71292031      -0.00074934       2.71349963       0.00000000
Si      -0.00171045       2.71463076       2.71301613       0.00000000
Si       2.71358820      -2.71479366      -0.00065618       0.00000000
Si       2.71137276       2.71764441      -0.00721795       0.00000000
Si      -0.00156384      -2.71573848       2.71367230       0.00000000
