10
Lattice="16.28999089631971 0.0 0.0 0.0 16.28999089631971 0.0 0.0 0.0 34.53561885213415" Properties=species:S:1:pos:R:3:initial_magmoms:R:1 pbc="T T T"
Si      -2.21969658       0.80518212       0.02773212       0.00000000
Si       1.22482881       0.35230383       1.99819749       0.00000000
Si       1.32351363       0.97972947      -1.70530074       0.00000000
Si      -0.26928999      -2.38856102      -0.02521102       0.00000000
Si       3.10339161      -0.50930685      -1.35683615       0.00000000
Si       3.39602517       0.11759751       0.86114614       0.00000000
Si      -2.45074286       1.73719818       2.19819337       0.00000000
Si      -2.46154297      -2.78854568      -0.79615007       0.00000000
Si       0.44479845       0.31884417      -3.77450350       0.00000000
Si      -3.69382985      -1.02949542       0.17171119       0.00000000
