10
Lattice="16.28999089631971 0.0 0.0 0.0 16.28999089631971 0.0 0.0 0.0 34.53561885213415" Properties=species:S:1:pos:R:3:initial_magmoms:R:1 pbc="T T T"
Si       0.28473291      -2.30979168       0.23833044       0.00000000
Si      -2.16785691       0.07135020      -0.93829875       0.00000000
Si       0.33200649       0.99753444       2.13264473       0.00000000
Si       1.64677239       0.83828340      -1.52623346       0.00000000
Si      -1.67440023       1.93223835      -2.28035365       0.00000000
Si       0.51147342       2.89948968      -1.79871964       0.00000000
Si       1.94448843      -2.57484627      -1.41533952       0.00000000
Si       1.87243776      -0.50657013       3.16204849       0.00000000
Si       0.95928552      -2.58255144       2.48532266       0.00000000
Si       1.97343576      -0.88731630      -3.11874080       0.00000000
