10
Lattice="16.28999089631971 0.0 0.0 0.0 16.28999089631971 0.0 0.0 0.0 34.53561885213415" Properties=species:S:1:pos:R:3:initial_magmoms:R:1 pbc="T T T"
Si      -2.21446260      -0.22118562       0.75971497       0.00000000
Si       1.51777188      -1.56954150       0.89927348       0.00000000
Si      -0.14545341      -0.38284758      -2.32635512       0.00000000
Si       0.71086302       2.22894441       0.65469209       0.00000000
Si      -1.61165115       1.42925202      -2.70645436       0.00000000
Si      -3.14142876       1.34296389      -0.83068570       0.00000000
Si      -1.12226697       2.69188992       2.01525809       0.00000000
Si       3.16345284      -0.15219747       1.83132128       0.00000000
Si       2.49722442      -2.42533665      -1.13214729       0.00000000
Si      -2.09997648       0.76447341       2.91080173       0.00000000
