10
Lattice="16.28999089631971 0.0 0.0 0.0 16.28999089631971 0.0 0.0 0.0 34.53561885213415" Properties=species:S:1:pos:R:3:initial_magmoms:R:1 pbc="T T T"
Si      -1.18752471      -1.48341627       1.39845992       0.00000000
Si       0.26873613      -0.57910950      -2.29610190       0.00000000
Si       1.45406169       1.26190485       1.42768743       0.00000000
Si      -1.20464550       1.79449011      -1.09578126       0.00000000
Si      -2.56354101      -0.07592769       2.78529373       0.00000000
Si      -2.28446073      -3.07920096       0.05263231       0.00000000
Si       0.12621492       2.65080654       2.77773733       0.00000000
Si       0.15473871      -2.79345807       2.79524690       0.00000000
Si       2.55233349       3.03406137       0.25840535       0.00000000
Si      -1.80069660      -0.81928926      -3.45480710       0.00000000
