10
Lattice="16.28999089631971 0.0 0.0 0.0 16.28999089631971 0.0 0.0 0.0 34.53561885213415" Properties=species:S:1:pos:R:3:initial_magmoms:R:1 pbc="T T T"
Si       1.45876787      -1.15776272       1.33836649       0.00000000
Si       1.73068055       0.97558855      -1.30824209       0.00000000
Si      -1.26451412       1.56727393       1.28896326       0.00000000
Si      -0.40462731      -2.10133899      -2.27369315       0.00000000
Si       0.32325061       0.05658494      -3.23292050       0.00000000
Si      -2.33474049      -2.32223139      -0.27681695       0.00000000
Si       0.09901225      -2.50665048       2.66971880       0.00000000
Si       2.80252997      -2.38211343      -0.11478265       0.00000000
Si      -2.62172142       0.21236458       2.66678327       0.00000000
Si       2.81492666       0.21384372       2.66768119       0.00000000
