10
Lattice="16.28999089631971 0.0 0.0 0.0 16.28999089631971 0.0 0.0 0.0 34.53561885213415" Properties=species:S:1:pos:R:3:initial_magmoms:R:1 pbc="T T T"
Si       1.35480672      -1.35531823      -1.36142939       0.00000000
Si      -1.36067112       1.36287027      -1.36004797       0.00000000
Si       1.34773686       1.36642149       1.37476015       0.00000000
Si      -1.36138788      -1.35466011       1.37514004       0.00000000
Si      -0.22665906       2.61355131       2.73470451       0.00000000
Si       2.71223613      -2.71265057      -0.00010361       0.00000000
Si      -2.71982727      -2.71065465       0.00013814       0.00000000
Si      -0.00192222      -2.71289702      -2.71864544       0.00000000
Si       2.71318262       0.00223173      -2.71867997       0.00000000
Si       2.71225242       2.72249883      -0.00407521       0.00000000
