10
Lattice="16.28999089631971 0.0 0.0 0.0 16.28999089631971 0.0 0.0 0.0 34.53561885213415" Properties=species:S:1:pos:R:3:initial_magmoms:R:1 pbc="T T T"
Si      -1.80550215      -1.06047804      -1.14409662       0.00000000
Si      -1.88962371       0.41723414       1.43464494       0.00000000
Si       1.07124997       1.90232176      -1.03907375       0.00000000
Si       1.81286101      -1.85586987       0.25805029       0.00000000
Si       1.80048061      -0.51643698       2.67875677       0.00000000
Si      -0.36558018      -2.28942822      -2.50438634       0.00000000
Si       2.35868027       0.45348428      -2.46998884       0.00000000
Si       0.80558937      -3.65518182      -0.99576605       0.00000000
Si      -2.09663703       2.69852809       1.87763358       0.00000000
Si       3.68659709      -0.91766069      -0.95183672       0.00000000
