10
Lattice="16.28999089631971 0.0 0.0 0.0 16.28999089631971 0.0 0.0 0.0 34.53561885213415" Properties=species:S:1:pos:R:3:initial_magmoms:R:1 pbc="T T T"
Si      -1.22577363      -0.26107983       1.96176239       0.00000000
Si       2.04782472       0.47726442       1.02184046       0.00000000
Si      -0.84307266      -2.32214669       0.83590059       0.00000000
Si      -2.27304144      -1.68038355      -1.13145658       0.00000000
Si       2.60219622      -1.72825008       0.25518383       0.00000000
Si       1.89264943      -1.56869768      -1.95658204       0.00000000
Si      -0.19692981       3.52251702       0.87527121       0.00000000
Si      -1.79745489      -0.63502655      -3.20069387       0.00000000
Si      -3.64379607       0.37784655      -0.78848315       0.00000000
Si      -2.00446821       1.64626740      -2.75770524       0.00000000
