10
Lattice="16.28999089631971 0.0 0.0 0.0 16.28999089631971 0.0 0.0 0.0 34.53561885213415" Properties=species:S:1:pos:R:3:initial_magmoms:R:1 pbc="T T T"
Si      -1.26078084       0.30667554       1.99488207       0.00000000
Si       2.10965274      -0.48086451       1.03140683       0.00000000
Si       0.26414235       1.36386396      -2.02409922       0.00000000
Si      -1.16835138      -1.85359742      -1.10987180       0.00000000
Si      -0.32128767       2.75618655      -0.22113169       0.00000000
Si      -1.99449873       0.87998580      -2.59752895       0.00000000
Si      -3.38858064      -0.18553333       1.19189394       0.00000000
Si      -2.69335602      -2.37455162       0.56030619       0.00000000
Si       2.05739442      -0.00760743      -3.05215609       0.00000000
Si      -0.45900333      -1.42542876       3.36387476       0.00000000
