10
Lattice="16.28999089631971 0.0 0.0 0.0 16.28999089631971 0.0 0.0 0.0 34.53561885213415" Properties=species:S:1:pos:R:3:initial_magmoms:R:1 pbc="T T T"
Si      -1.34773686      -1.36642149      -1.37476015       0.00000000
Si       1.36451556       1.35607734      -1.37883535       0.00000000
Si       1.44855895      -1.25965683       1.43233106       0.00000000
Si      -1.57439592       1.24712982       1.35994436       0.00000000
Si      -2.70184311       2.69542485      -0.05159624       0.00000000
Si       2.71036671       2.69182476       0.01077512       0.00000000
Si      -2.70912474      -2.72108160       0.00037989       0.00000000
Si      -2.70840798      -0.00355122      -2.73480811       0.00000000
Si       2.73598925      -2.70849432       0.00141596       0.00000000
Si       0.00689067       2.70884781      -2.73612047       0.00000000
