10
Lattice="16.28999089631971 0.0 0.0 0.0 16.28999089631971 0.0 0.0 0.0 34.53561885213415" Properties=species:S:1:pos:R:3:initial_magmoms:R:1 pbc="T T T"
Si      -0.74270997      -1.88186967      -1.24570047       0.00000000
Si       1.93482846       0.74748294      -1.20087321       0.00000000
Si       0.66415959      -1.77502356       1.54025493       0.00000000
Si      -1.54658889       1.92482640      -0.07843043       0.00000000
Si       2.57177302       1.03532724       1.16274587       0.00000000
Si      -1.87015716      -0.43357464      -2.65724107       0.00000000
Si       0.02700882      -0.66802032       3.49614626       0.00000000
Si      -3.17687580       0.90187956      -1.34212397       0.00000000
Si       0.84173688       2.31277275      -2.60229487       0.00000000
Si       1.01439459       1.55180169       3.15054813       0.00000000
