10
Lattice="16.28999089631971 0.0 0.0 0.0 16.28999089631971 0.0 0.0 0.0 34.53561885213415" Properties=species:S:1:pos:R:3:initial_magmoms:R:1 pbc="T T T"
Si       0.80856622      -2.09448675      -0.79045169       0.00000000
Si       1.07852573       1.96656138      -0.82605793       0.00000000
Si       0.06286311      -0.01207089       2.43980469       0.00000000
Si      -2.08911105       0.67311909      -1.11228930       0.00000000
Si      -1.17763668      -3.28812021      -0.08530303       0.00000000
Si      -2.13065055       2.81786049      -0.11949331       0.00000000
Si      -1.19391039       0.55977327      -3.30554407       0.00000000
Si      -0.02547756       3.52489536       0.52552881       0.00000000
Si      -2.97088875      -1.91664882       0.94275385       0.00000000
Si       0.62930618       2.04545385      -3.10136938       0.00000000
