10
Lattice="16.28999089631971 0.0 0.0 0.0 16.28999089631971 0.0 0.0 0.0 34.53561885213415" Properties=species:S:1:pos:R:3:initial_magmoms:R:1 pbc="T T T"
Si      -2.10517299      -0.70703487      -0.64502211       0.00000000
Si       1.10400329      -1.55833398      -1.35158673       0.00000000
Si       1.08980493      -0.04191417       2.09928330       0.00000000
Si      -0.31263768       2.36923389       0.30836871       0.00000000
Si      -2.07622566       0.98049510      -2.34842339       0.00000000
Si      -0.15912072       1.85407893       2.70849196       0.00000000
Si       3.24054431       0.25500366       1.02456878       0.00000000
Si       3.22358642      -0.73811619      -1.09699001       0.00000000
Si       0.02547756      -3.52489536      -0.52552881       0.00000000
Si      -2.40288903       2.70609480      -0.75591605       0.00000000
