10
Lattice="16.28999089631971 0.0 0.0 0.0 16.28999089631971 0.0 0.0 0.0 34.53561885213415" Properties=species:S:1:pos:R:3:initial_magmoms:R:1 pbc="T T T"
Si       1.64993265       1.41521004      -0.87848303       0.00000000
Si      -0.56658249      -1.48408416      -1.72674737       0.00000000
Si      -1.77015285       1.51744608       0.28015310       0.00000000
Si      -0.07367967      -1.29769398       1.96355824       0.00000000
Si       0.21996387       2.05697318      -2.84584019       0.00000000
Si      -2.25955332      -2.26494531       1.48192423       0.00000000
Si       1.26723168       3.47627690       0.24737878       0.00000000
Si       3.67000230       0.29400192      -0.57453488       0.00000000
Si      -1.76127480      -3.22136379      -0.65151481       0.00000000
Si      -1.11584871       0.14160897      -3.64140315       0.00000000
