10
Lattice="16.28999089631971 0.0 0.0 0.0 16.28999089631971 0.0 0.0 0.0 34.53561885213415" Properties=species:S:1:pos:R:3:initial_magmoms:R:1 pbc="T T T"
Si       2.20754261       0.65733408      -0.52345667       0.00000000
Si      -1.58977761      -1.38085443      -1.08207061       0.00000000
Si      -0.58831335       2.11419765      -0.89706320       0.00000000
Si      -0.11239448      -0.42870393       2.35287849       0.00000000
Si      -0.87755696       1.85749983       2.39573722       0.00000000
Si       1.56242603       2.41111548      -1.97177772       0.00000000
Si      -3.49885158      -0.51825006       0.08668445       0.00000000
Si      -1.30388581      -3.29548329       0.33240552       0.00000000
Si       2.82393992       2.03597307       1.26825224       0.00000000
Si      -1.53493209      -2.36346723       2.50286677       0.00000000
