10
Lattice="16.28999089631971 0.0 0.0 0.0 16.28999089631971 0.0 0.0 0.0 34.53561885213415" Properties=species:S:1:pos:R:3:initial_magmoms:R:1 pbc="T T T"
Si      -0.76076743       2.09813571      -0.81849462       0.00000000
Si       1.25517545       0.25389594       2.03470166       0.00000000
Si      -1.75225896      -1.47867588       0.74849089       0.00000000
Si       1.35291545      -0.71187300      -1.88713088       0.00000000
Si       1.46158604       2.67165774      -1.30372034       0.00000000
Si       2.88077084      -1.47336534       1.69466376       0.00000000
Si      -0.27551277      -0.20937537       3.84913501       0.00000000
Si       2.97170162       1.13134050      -2.26450179       0.00000000
Si      -0.22974439      -1.14689745      -3.73071231       0.00000000
Si      -3.84251031      -1.14181497      -0.31579388       0.00000000
