10
Lattice="16.28999089631971 0.0 0.0 0.0 16.28999089631971 0.0 0.0 0.0 34.46413024517268" Properties=species:S:1:pos:R:3:initial_magmoms:R:1 pbc="T T T"
Si      -0.82161873      -1.81989274      -1.41499459       0.00000000
Si       1.92135663       0.81392985      -1.43415665       0.00000000
Si       0.32371488       0.56609379       2.49516996       0.00000000
Si      -1.90764697       1.74848715      -0.33054566       0.00000000
Si       1.26666153      -2.39406704       1.20903683       0.00000000
Si       2.31606333      -0.73466434       2.68927205       0.00000000
Si       0.63812817       2.08968120      -3.05197276       0.00000000
Si      -2.08280845      -0.64063846      -3.06610306       0.00000000
Si      -2.75668828      -2.62681856      -0.05007641       0.00000000
Si      -0.78786585       3.39656274      -1.71900285       0.00000000
