10
Lattice="16.28999089631971 0.0 0.0 0.0 16.28999089631971 0.0 0.0 0.0 34.46413024517268" Properties=species:S:1:pos:R:3:initial_magmoms:R:1 pbc="T T T"
Si      -1.88457381       0.18821466      -1.49595087       0.00000000
Si      -1.06754886      -0.12326643       2.16479662       0.00000000
Si       1.10175786      -2.15384751      -0.11059546       0.00000000
Si       1.49164272       1.72630017      -0.89220790       0.00000000
Si       1.18612377      -2.65195987      -2.42913665       0.00000000
Si      -3.28724055      -1.07437437       1.66675520       0.00000000
Si      -3.83769594       0.32441535      -0.15670849       0.00000000
Si      -2.51239041      -1.98035901      -2.18833564       0.00000000
Si       3.33769068      -1.95499548       0.73391406       0.00000000
Si       3.16216593       2.32150419       0.68159748       0.00000000
