10
Lattice="16.28999089631971 0.0 0.0 0.0 16.28999089631971 0.0 0.0 0.0 34.46413024517268" Properties=species:S:1:pos:R:3:initial_magmoms:R:1 pbc="T T T"
Si       1.35733167       1.35671265      -1.35709482       0.00000000
Si      -1.35654975       1.35754344       1.35712928       0.00000000
Si       1.35729909      -1.35736425       1.35778410       0.00000000
Si      -1.35840681      -1.35764118      -1.35692249       0.00000000
Si      -2.71386513       0.00058644       2.71408624       0.00000000
Si      -0.00068418       2.71583622       2.71353481       0.00000000
Si      -0.00123804      -2.71524978       2.71463766       0.00000000
Si       2.71529865       2.71469592       0.00034464       0.00000000
Si      -2.71414206      -0.00131949      -2.71591284       0.00000000
Si       2.71461447       0.00026064       2.71560266       0.00000000
