10
Lattice="16.28999089631971 0.0 0.0 0.0 16.28999089631971 0.0 0.0 0.0 34.46413024517268" Properties=species:S:1:pos:R:3:initial_magmoms:R:1 pbc="T T T"
Si       1.34094393       1.35264015      -1.36991548       0.00000000
Si      -1.42599402       1.30688154       1.33296991       0.00000000
Si      -1.37479455      -1.36155078      -1.37039798       0.00000000
Si       1.28322846      -1.27575135       1.61781611       0.00000000
Si      -2.54577514      -0.34119405       2.72142710       0.00000000
Si      -0.63812817      -2.08968120       3.05197276       0.00000000
Si       2.68656309      -2.71265152       0.02853632       0.00000000
Si       2.70423774       2.70249471       0.01378566       0.00000000
Si       2.69728191      -0.00296478      -2.72852672       0.00000000
Si      -2.74221462       2.69943219      -0.02050617       0.00000000
