10
Lattice="16.28999089631971 0.0 0.0 0.0 16.28999089631971 0.0 0.0 0.0 34.46413024517268" Properties=species:S:1:pos:R:3:initial_magmoms:R:1 pbc="T T T"
Si      -1.99980927      -0.85437792       0.93859665       0.00000000
Si       0.50029848      -1.60976151      -1.71507394       0.00000000
Si      -0.91342917       2.02600359      -0.96806350       0.00000000
Si       1.56300921       0.84662388       1.73554564       0.00000000
Si       1.31044905      -3.20851098       0.21023131       0.00000000
Si      -0.15669351       1.84117725       3.05610846       0.00000000
Si       2.60871318       1.70657298      -1.93302522       0.00000000
Si      -1.76513553       0.07784991       3.23380561       0.00000000
Si       1.74449610      -0.10507050      -3.27809204       0.00000000
Si      -3.69838386       0.45639693      -0.17028736       0.00000000
