10
Lattice="16.28999089631971 0.0 0.0 0.0 16.28999089631971 0.0 0.0 0.0 34.46413024517268" Properties=species:S:1:pos:R:3:initial_magmoms:R:1 pbc="T T T"
Si      -0.62781660      -2.16857367      -0.69238476       0.00000000
Si      -1.95312213       0.13620069       1.33924239       0.00000000
Si       1.88457381      -0.18821466       1.49595087       0.00000000
Si      -0.00206883       1.59505164      -1.83194187       0.00000000
Si      -1.40266674      -1.26258903       3.16270607       0.00000000
Si      -2.34375633      -1.70320095      -2.28428383       0.00000000
Si       3.37621653       1.53808551       0.60374297       0.00000000
Si       0.81702495      -0.31148109       3.66074750       0.00000000
Si      -2.14488801       2.52775188      -1.98399769       0.00000000
Si      -3.38728396       0.44605278      -1.85441249       0.00000000
