10
Lattice="16.28999089631971 0.0 0.0 0.0 16.28999089631971 0.0 0.0 0.0 34.46413024517268" Properties=species:S:1:pos:R:3:initial_magmoms:R:1 pbc="T T T"
Si       1.63755225       1.55429406       0.74466688       0.00000000
Si      -1.47458709      -0.92587473       1.62315805       0.00000000
Si       1.31580846      -1.92867084      -0.54956533       0.00000000
Si      -1.22401431       0.58557663      -1.98699608       0.00000000
Si       0.23310990      -0.25182711      -3.59188813       0.00000000
Si      -1.77934041      -3.08760660       0.75590219       0.00000000
Si       3.10741524       1.67993883      -1.17770892       0.00000000
Si       0.87172677      -2.36835423      -2.84990945       0.00000000
Si       0.46520982       3.61335006       1.21527484       0.00000000
Si       2.51524116       0.64242873       2.83481415       0.00000000
