10
Lattice="16.28999089631971 0.0 0.0 0.0 16.28999089631971 0.0 0.0 0.0 34.46413024517268" Properties=species:S:1:pos:R:3:initial_magmoms:R:1 pbc="T T T"
Si      -1.35744570      -1.35570267      -1.35785303       0.00000000
Si       1.36251189      -1.35407367       1.35668125       0.00000000
Si       1.35728280       1.35925006      -1.35730160       0.00000000
Si      -1.35773892       1.36170515       1.36329836       0.00000000
Si      -2.71368594      -2.71178001      -0.00062035       0.00000000
Si      -0.00034209      -2.71285515      -2.71425856       0.00000000
Si       2.71298547      -2.71417464      -0.00006893       0.00000000
Si       2.71487511       0.00203625      -2.71446534       0.00000000
Si      -2.71507059       0.00208512      -2.71487891       0.00000000
Si      -0.00019548       2.71675239      -2.71487891       0.00000000
