10
Lattice="16.28999089631971 0.0 0.0 0.0 16.28999089631971 0.0 0.0 0.0 34.46413024517268" Properties=species:S:1:pos:R:3:initial_magmoms:R:1 pbc="T T T"
Si       0.34116147       0.74088549       2.23796401       0.00000000
Si       1.44511848      -1.79626572       0.64454852       0.00000000
Si      -2.07397764      -1.20273957      -0.46836779       0.00000000
Si       0.25873407       2.13656382      -1.26662642       0.00000000
Si      -0.89360424       0.93962349      -2.89998586       0.00000000
Si       1.09781568      -1.35544203       3.00613544       0.00000000
Si      -1.41828885       3.39203412       0.02598597       0.00000000
Si      -1.74464271      -3.17954736       0.93201400       0.00000000
Si       1.25250552      -3.36626334      -1.20128240       0.00000000
Si      -1.74265533       1.22111469       3.22036459       0.00000000
