10
Lattice="16.28999089631971 0.0 0.0 0.0 16.28999089631971 0.0 0.0 0.0 34.46413024517268" Properties=species:S:1:pos:R:3:initial_magmoms:R:1 pbc="T T T"
Si       1.35725963       1.35651437       1.35709482       0.00000000
Si      -1.35801852      -1.35816919       1.35719821       0.00000000
Si      -1.35853980       1.35720018      -1.36081694       0.00000000
Si       1.35859704      -1.35909772      -1.36112712       0.00000000
Si      -2.71188042      -0.00295528      -2.71213901       0.00000000
Si      -2.71533390       2.71283931       0.00051696       0.00000000
Si      -0.00003637       2.71383300       2.71449981       0.00000000
Si       2.71382078      -0.00082723       2.71474106       0.00000000
Si      -2.71520358      -0.00117275       2.71436195       0.00000000
Si      -0.00039041      -2.71556602       2.71449981       0.00000000
