10
Lattice="16.28999089631971 0.0 0.0 0.0 16.28999089631971 0.0 0.0 0.0 34.46413024517268" Properties=species:S:1:pos:R:3:initial_magmoms:R:1 pbc="T T T"
Si       1.47362598      -1.20171330      -1.42312813       0.00000000
Si      -1.24105365       1.54461684      -1.39772805       0.00000000
Si       1.95458823       0.75654737       1.23722850       0.00000000
Si      -1.62206046      -1.48195017       1.54213283       0.00000000
Si       0.13333365      -2.53143342      -2.79810983       0.00000000
Si      -2.58691716       0.18434540      -2.79149272       0.00000000
Si      -2.77439877      -2.67889050      -0.09122660       0.00000000
Si       2.84107374      -2.63715552      -0.00448034       0.00000000
Si       1.46714256       0.99942149       3.49497494       0.00000000
Si       2.85088032       2.76209072      -0.04649214       0.00000000
