10
Lattice="16.28999089631971 0.0 0.0 0.0 16.28999089631971 0.0 0.0 0.0 34.46413024517268" Properties=species:S:1:pos:R:3:initial_magmoms:R:1 pbc="T T T"
Si       0.56521413       1.97440894      -1.09723513       0.00000000
Si      -1.33177266       1.21740010       1.48916144       0.00000000
Si      -0.79006500      -1.42035768      -1.68929475       0.00000000
Si       1.94585679      -0.52250175       1.25897538       0.00000000
Si      -1.07489565       3.17742056       0.07844040       0.00000000
Si       1.29375180      -1.90058688      -2.67169533       0.00000000
Si       2.62361853       2.50581969      -0.16236061       0.00000000
Si      -0.40922109       0.46876104       3.57858496       0.00000000
Si       3.66661836       0.31711743      -0.36056393       0.00000000
Si       1.73613933      -2.84034069       1.76928604       0.00000000
