10
Lattice="16.28999089631971 0.0 0.0 0.0 16.28999089631971 0.0 0.0 0.0 34.46413024517268" Properties=species:S:1:pos:R:3:initial_magmoms:R:1 pbc="T T T"
Si       1.35027810       1.34696634      -1.37059787       0.00000000
Si       1.35180936      -1.35857370       1.35847338       0.00000000
Si      -1.36223496       1.35610503       1.35816320       0.00000000
Si      -1.36417347      -1.36672887      -1.37050137       0.00000000
Si       2.71037907      -2.71089613      -0.00199892       0.00000000
Si       2.71230129       2.71211721      -0.00479052       0.00000000
Si       2.71129131      -0.00002444       2.71536141       0.00000000
Si      -0.00307881       2.71478877       2.71525802       0.00000000
Si      -0.00355122      -2.71459396       2.71574052       0.00000000
Si      -2.71764441       2.71454442      -0.00196446       0.00000000
