10
Lattice="16.28999089631971 0.0 0.0 0.0 16.28999089631971 0.0 0.0 0.0 34.46413024517268" Properties=species:S:1:pos:R:3:initial_magmoms:R:1 pbc="T T T"
Si      -1.37143881       1.23693554       1.40138125       0.00000000
Si       1.33664337       1.37189819      -1.34772057       0.00000000
Si      -1.37699370      -1.34377478      -1.34582504       0.00000000
Si       1.26816021      -1.43556018       1.38507970       0.00000000
Si      -2.26773090      -0.76860781       2.68510189       0.00000000
Si       0.25394481       2.50411835       2.67035123       0.00000000
Si      -0.40835772      -2.46080391       2.76909102       0.00000000
Si       2.69330715       0.01520346      -2.70715894       0.00000000
Si       2.69058672      -2.71828365       0.01895528       0.00000000
Si      -0.02140506      -2.70214026      -2.70740019       0.00000000
