10
Lattice="16.28999089631971 0.0 0.0 0.0 16.28999089631971 0.0 0.0 0.0 34.46413024517268" Properties=species:S:1:pos:R:3:initial_magmoms:R:1 pbc="T T T"
Si       1.37143881      -1.23693554      -1.40138125       0.00000000
Si       1.62538362       1.26718281       1.26896998       0.00000000
Si      -1.36353816       1.50280137      -1.35826660       0.00000000
Si      -0.89629209      -2.00554335       1.28372064       0.00000000
Si       2.63959902      -2.67249572      -0.01630154       0.00000000
Si      -0.00555489      -2.58071032      -2.74720629       0.00000000
Si       2.70808218       0.13496265      -2.74910181       0.00000000
Si      -2.72453508       0.13815549      -2.74444915       0.00000000
Si       0.75790854      -0.58777578       3.81263100       0.00000000
Si      -0.00605988       2.84679153      -2.74782664       0.00000000
