10
Lattice="16.28999089631971 0.0 0.0 0.0 16.28999089631971 0.0 0.0 0.0 34.46413024517268" Properties=species:S:1:pos:R:3:initial_magmoms:R:1 pbc="T T T"
Si       0.56479059      -0.15183909      -2.24399524       0.00000000
Si      -0.02059056      -1.93246967       1.31535873       0.00000000
Si       1.67311332       1.48419819       0.84368238       0.00000000
Si      -2.26939248       0.77416596       0.02829507       0.00000000
Si      -1.57685571      -1.32673253      -2.51515917       0.00000000
Si       1.26600993       2.13908877      -2.52446449       0.00000000
Si       0.36799110       3.44272860       0.80828770       0.00000000
Si      -3.25376460      -0.79737595       1.54592389       0.00000000
Si       0.67632822      -1.15675616       3.43845373       0.00000000
Si      -2.03255217       3.01290066       0.87700921       0.00000000
