10
Lattice="16.28999089631971 0.0 0.0 0.0 16.28999089631971 0.0 0.0 0.0 34.46413024517268" Properties=species:S:1:pos:R:3:initial_magmoms:R:1 pbc="T T T"
Si      -2.08542951       0.77884933      -0.70510203       0.00000000
Si       0.80516583      -1.72251993      -1.40410392       0.00000000
Si       1.73946249       1.62682529      -0.45265214       0.00000000
Si      -1.43148375      -0.68407900       2.10913702       0.00000000
Si       2.41882065      -2.87612886      -0.02715775       0.00000000
Si      -0.93227670      -3.37393497      -1.40189821       0.00000000
Si       3.45650994      -1.15794223       1.19931794       0.00000000
Si      -2.04291261       1.36470289      -2.94854585       0.00000000
Si       3.83132655       0.37521571      -0.59736710       0.00000000
Si       1.19860191      -0.73937215      -3.65326878       0.00000000
