10
Lattice="16.28999089631971 0.0 0.0 0.0 16.28999089631971 0.0 0.0 0.0 34.46413024517268" Properties=species:S:1:pos:R:3:initial_magmoms:R:1 pbc="T T T"
Si       1.51573563      -1.09529303       1.62305228       0.00000000
Si      -1.22284143       1.73225091       1.35044323       0.00000000
Si       1.43148375       0.68407900      -2.10913702       0.00000000
Si      -2.44411902      -1.10290046      -0.44834412       0.00000000
Si      -0.65394576       1.46292834      -2.81423906       0.00000000
Si       0.18037917      -3.35466716      -1.01596866       0.00000000
Si      -0.27139140      -2.15117825       2.85667274       0.00000000
Si      -2.40937245      -0.14837421      -2.79097576       0.00000000
Si       2.57137650       0.68674730       2.89574819       0.00000000
Si      -2.53754217       3.11688462      -0.05796870       0.00000000
