10
Lattice="16.28999089631971 0.0 0.0 0.0 16.28999089631971 0.0 0.0 0.0 34.46413024517268" Properties=species:S:1:pos:R:3:initial_magmoms:R:1 pbc="T T T"
Si      -1.35676152       1.35682668      -1.35685357       0.00000000
Si       1.35819504      -1.35793440      -1.35730160       0.00000000
Si      -1.35744570      -1.35760860       1.35840445       0.00000000
Si       1.35824391       1.35790182       1.35750838       0.00000000
Si      -2.71435383       2.71376739      -0.00024125       0.00000000
Si      -0.00070047      -2.71440270      -2.71436195       0.00000000
Si      -0.00162900       2.71500543      -2.71398285       0.00000000
Si      -2.71472850      -0.00115659      -2.71429302       0.00000000
Si      -0.00171045       2.71275741       2.71677444       0.00000000
Si       2.71518462       2.71435383      -0.00006893       0.00000000
