10
Lattice="16.28999089631971 0.0 0.0 0.0 16.28999089631971 0.0 0.0 0.0 34.46413024517268" Properties=species:S:1:pos:R:3:initial_magmoms:R:1 pbc="T T T"
Si      -1.33475373      -1.33726239       1.37069437       0.00000000
Si      -1.45694502       1.22020245      -1.41604919       0.00000000
Si       1.37393118       1.38261375       1.36545582       0.00000000
Si       1.26379449      -1.49493330      -1.37506098       0.00000000
Si       0.33018201       2.27608767      -2.64966964       0.00000000
Si       2.16121059       0.27530100      -2.77428963       0.00000000
Si      -2.69799867      -2.68978851      -0.00693419       0.00000000
Si       0.01563840      -2.69332344       2.72623830       0.00000000
Si      -2.69796609       0.01915704       2.72554901       0.00000000
Si      -2.70062136       2.72678102      -0.00304663       0.00000000
