10
Lattice="16.28999089631971 0.0 0.0 0.0 16.28999089631971 0.0 0.0 0.0 34.46413024517268" Properties=species:S:1:pos:R:3:initial_magmoms:R:1 pbc="T T T"
Si      -1.35047358       1.36010097       1.35675017       0.00000000
Si      -1.35519768      -1.35726651      -1.35761178       0.00000000
Si       1.35744570      -1.35827649       1.35940391       0.00000000
Si       1.35967743       1.35834165      -1.35719821       0.00000000
Si      -0.00475668      -2.71248048       2.70646966       0.00000000
Si      -0.01018125       2.68982109       2.73173188       0.00000000
Si      -2.71358820      -2.71306692      -0.00103392       0.00000000
Si      -2.71298547       2.71417464       0.00006893       0.00000000
Si      -2.71332756       0.00131949      -2.71418963       0.00000000
Si       0.00239463      -2.71420722      -2.71422409       0.00000000
