10
Lattice="16.28999089631971 0.0 0.0 0.0 16.28999089631971 0.0 0.0 0.0 34.46413024517268" Properties=species:S:1:pos:R:3:initial_magmoms:R:1 pbc="T T T"
Si       0.93901003      -1.03724850      -1.86899397       0.00000000
Si      -0.88368363      -1.85000547       1.24344411       0.00000000
Si       1.90398239       0.89149469       1.29830759       0.00000000
Si      -1.10053611      -0.25358659      -2.52557048       0.00000000
Si      -2.06700552      -0.41669730       2.67075963       0.00000000
Si       0.63430002       2.32048607       2.64733780       0.00000000
Si      -2.47762755       2.79193495       0.18004589       0.00000000
Si      -3.41715330       0.90702394       1.27999679       0.00000000
Si      -2.64176559      -2.87580306      -0.11731911       0.00000000
Si       3.26331773       2.26536070      -0.06103915       0.00000000
