10
Lattice="16.28999089631971 0.0 0.0 0.0 16.28999089631971 0.0 0.0 0.0 34.46413024517268" Properties=species:S:1:pos:R:3:initial_magmoms:R:1 pbc="T T T"
Si      -1.35767376      -1.35671591       1.35637107       0.00000000
Si       1.35769005       1.35874890       1.35619875       0.00000000
Si       1.35679410      -1.35563914      -1.36133391       0.00000000
Si      -1.35666378       1.35542574      -1.36378086       0.00000000
Si       0.00013032      -2.71401206       2.71384499       0.00000000
Si       2.71533390      -2.71283931      -0.00051696       0.00000000
Si       0.00345348      -2.71579460      -2.71265598       0.00000000
Si      -2.71482624       0.00109143       2.71398285       0.00000000
Si       2.71529752       0.00099369       2.71398285       0.00000000
Si       0.00022806       2.71560816       2.71384499       0.00000000
