10
Lattice="16.28999089631971 0.0 0.0 0.0 16.28999089631971 0.0 0.0 0.0 34.46413024517268" Properties=species:S:1:pos:R:3:initial_magmoms:R:1 pbc="T T T"
Si       1.42976257      -1.23725971      -1.37673938       0.00000000
Si       1.60492405       1.15186590       1.35881802       0.00000000
Si      -1.29893202       1.48900374      -1.36164408       0.00000000
Si      -1.11757545      -1.74569667       1.37997901       0.00000000
Si       2.69095229      -2.41651399       0.27436909       0.00000000
Si       0.75588273      -3.22343981       1.63928727       0.00000000
Si       0.06421518      -2.58223283      -2.73366187       0.00000000
Si      -2.65271247       0.13284495      -2.73193867       0.00000000
Si      -2.72119563      -2.67461342       0.00086160       0.00000000
Si      -2.59615359       2.89189854       0.04694017       0.00000000
