10
Lattice="16.28999089631971 0.0 0.0 0.0 16.28999089631971 0.0 0.0 0.0 34.46413024517268" Properties=species:S:1:pos:R:3:initial_magmoms:R:1 pbc="T T T"
Si       1.63027062       1.15770098       1.11729326       0.00000000
Si      -0.10985976      -2.03306109       1.14372727       0.00000000
Si      -2.12810931       1.09579898       0.42845831       0.00000000
Si       1.35720135      -0.06000421      -2.02135683       0.00000000
Si      -1.92293676      -2.01416469      -2.01646292       0.00000000
Si       0.43792407       3.03427640       1.62860338       0.00000000
Si      -0.24641883      -0.98892096      -3.40047424       0.00000000
Si      -1.42688997       3.38672684       0.14798906       0.00000000
Si      -1.52715492      -3.38755830      -0.09005482       0.00000000
Si      -1.26063423       2.95075757      -2.11520271       0.00000000
