10
Lattice="16.28999089631971 0.0 0.0 0.0 16.28999089631971 0.0 0.0 0.0 34.46413024517268" Properties=species:S:1:pos:R:3:initial_magmoms:R:1 pbc="T T T"
Si      -1.57752360       1.76850756      -0.15343439       0.00000000
Si      -0.66528360      -1.08608688       2.03276447       0.00000000
Si      -0.80311329      -1.86448824      -1.31373891       0.00000000
Si       2.11967109       0.48351978       1.23498833       0.00000000
Si       2.01122856       0.89231733      -1.22182303       0.00000000
Si       0.92506023       2.06329140       2.52032879       0.00000000
Si      -2.11933389      -0.47193759      -2.66721499       0.00000000
Si       0.63170991       2.25859221      -2.64374491       0.00000000
Si      -0.94078008       0.82547946       3.31534779       0.00000000
Si      -2.88448333      -1.80159255       1.54781942       0.00000000
