10
Lattice="16.28999089631971 0.0 0.0 0.0 16.28999089631971 0.0 0.0 0.0 34.46413024517268" Properties=species:S:1:pos:R:3:initial_magmoms:R:1 pbc="T T T"
Si       1.35743140       1.35804843      -1.35544054       0.00000000
Si      -1.35746199       1.35685926       1.35764624       0.00000000
Si      -1.35769005      -1.35874890      -1.35619875       0.00000000
Si       1.35760747      -1.35775521       1.35778410       0.00000000
Si      -0.00022806       2.71285515       2.71505123       0.00000000
Si      -0.00027693      -2.71435220       2.71477552       0.00000000
Si       2.71455487       2.71479366       0.00041357       0.00000000
Si       2.71479433       0.00148239       2.71460320       0.00000000
Si      -2.71474479       2.71477737       0.00027571       0.00000000
Si       2.71224657      -0.00024435      -2.71753265       0.00000000
