10
Lattice="16.28999089631971 0.0 0.0 0.0 16.28999089631971 0.0 0.0 0.0 34.46413024517268" Properties=species:S:1:pos:R:3:initial_magmoms:R:1 pbc="T T T"
Si      -1.35723393      -1.35599589      -1.35740499       0.00000000
Si       1.35969823      -1.35824391       1.35575071       0.00000000
Si       1.35768950       1.35928647      -1.35695696       0.00000000
Si      -1.35765747       1.35840681       1.36019659       0.00000000
Si       0.01803303       2.69563662       2.71636087       0.00000000
Si       2.70448439      -0.01086543       2.70798608       0.00000000
Si       2.71502239      -2.71137276      -0.00044803       0.00000000
Si       0.00022806      -2.71285515      -2.71505123       0.00000000
Si      -2.71461447      -2.71365336       0.00013786       0.00000000
Si      -2.71451673       0.00192222      -2.71477552       0.00000000
