10
Lattice="16.28999089631971 0.0 0.0 0.0 16.28999089631971 0.0 0.0 0.0 34.46413024517268" Properties=species:S:1:pos:R:3:initial_magmoms:R:1 pbc="T T T"
Si       0.16625574      -0.43596927      -2.26319177       0.00000000
Si       1.86481404      -0.35245044       1.48061433       0.00000000
Si      -0.70121934      -2.29092786       0.28046925       0.00000000
Si      -0.12347820       2.35299276       1.10033690       0.00000000
Si       0.40710339      -0.65489058       3.36814687       0.00000000
Si      -1.26600993      -2.13908877       2.52446449       0.00000000
Si       3.03751485       1.54061046       1.01445224       0.00000000
Si       1.42688997      -3.38672684      -0.14798906       0.00000000
Si      -0.89801883       1.30363983       3.33275219       0.00000000
Si       0.93071286       3.62045250      -0.99091323       0.00000000
