10
Lattice="16.28999089631971 0.0 0.0 0.0 16.28999089631971 0.0 0.0 0.0 34.46413024517268" Properties=species:S:1:pos:R:3:initial_magmoms:R:1 pbc="T T T"
Si      -0.65091582      -0.94381002      -1.94860301       0.00000000
Si      -1.58845419       1.55841543       0.87904260       0.00000000
Si      -0.70833807      -0.72138636       2.42948129       0.00000000
Si       1.62380416      -2.13465789       0.18610641       0.00000000
Si       0.22561650       1.46362392       2.37437312       0.00000000
Si       2.86620011      -0.05295879       0.05652121       0.00000000
Si       0.84932380       2.61314406      -1.90348944       0.00000000
Si       2.47159115       1.61839521       1.62360608       0.00000000
Si       0.86496383      -2.46860289       2.38667682       0.00000000
Si       2.80027448       1.30445433      -1.91293262       0.00000000
