10
Lattice="16.28999089631971 0.0 0.0 0.0 16.28999089631971 0.0 0.0 0.0 34.46413024517268" Properties=species:S:1:pos:R:3:initial_magmoms:R:1 pbc="T T T"
Si      -1.00248660      -2.10202902       0.19020764       0.00000000
Si       1.26635202       0.52373979       1.89459769       0.00000000
Si      -1.89214866       1.34949618      -0.52802523       0.00000000
Si       1.51396002      -0.02702511      -1.84831234       0.00000000
Si      -1.53316593       1.45300284      -2.84680768       0.00000000
Si       1.40243868       2.86894593       1.93112969       0.00000000
Si       2.44791459       2.15798517      -1.90342051       0.00000000
Si      -3.24218241      -1.82281842       0.71868091       0.00000000
Si      -0.47913777      -3.34024821      -1.73140994       0.00000000
Si       3.40908065      -0.30634974       1.84710609       0.00000000
