10
Lattice="16.28999089631971 0.0 0.0 0.0 16.28999089631971 0.0 0.0 0.0 34.46413024517268" Properties=species:S:1:pos:R:3:initial_magmoms:R:1 pbc="T T T"
Si       1.35694071       1.35645201      -1.35757731       0.00000000
Si      -1.35824391      -1.35790182      -1.35750838       0.00000000
Si      -1.35995436       1.35485559       1.35926606       0.00000000
Si       1.35681039      -1.35935163       1.36016212       0.00000000
Si       2.71244790       2.71515204      -0.00089607       0.00000000
Si      -0.00086337       2.71401174      -2.71443088       0.00000000
Si      -2.72215674       0.00065160       2.70633180       0.00000000
Si       2.71459818      -0.00114030      -2.71470659       0.00000000
Si      -2.71500543      -0.00107514      -2.71436195       0.00000000
Si      -2.71740006       2.71313208      -0.00013786       0.00000000
