10
Lattice="16.28999089631971 0.0 0.0 0.0 16.28999089631971 0.0 0.0 0.0 34.46413024517268" Properties=species:S:1:pos:R:3:initial_magmoms:R:1 pbc="T T T"
Si      -1.61228646      -1.02542292      -1.34010399       0.00000000
Si      -1.16100459       0.19246635       2.01970255       0.00000000
Si       1.10770324       1.77531678      -1.14658779       0.00000000
Si       1.61110285      -1.45336122       1.16519843       0.00000000
Si       2.42262504       0.33689349      -2.59725277       0.00000000
Si      -0.29642913      -2.40741765      -2.63740351       0.00000000
Si      -1.14251544      -2.19981789       2.67276372       0.00000000
Si       0.24421968       1.80291204       3.29549644       0.00000000
Si       3.18357818       0.44344638       2.00126423       0.00000000
Si      -3.21189930      -2.10694860      -0.01271727       0.00000000
