10
Lattice="16.28999089631971 0.0 0.0 0.0 16.28999089631971 0.0 0.0 0.0 34.46413024517268" Properties=species:S:1:pos:R:3:initial_magmoms:R:1 pbc="T T T"
Si       0.46491660       1.95076008      -1.13972942       0.00000000
Si      -1.86588918      -0.41300037       1.30532966       0.00000000
Si       0.00529425      -1.85679936      -1.43980877       0.00000000
Si       1.56315582      -0.53318799       1.69467116       0.00000000
Si       0.55574964      -3.25558908       0.38365491       0.00000000
Si      -1.51398934      -2.72706003       1.55136923       0.00000000
Si      -1.21613810       0.29900295       3.42484039       0.00000000
Si       2.77544133      -2.30448114       0.88169634       0.00000000
Si      -2.18770790      -1.88089227      -2.43289324       0.00000000
Si      -0.66549537       3.76615026      -0.15981026       0.00000000
