10
Lattice="16.28999089631971 0.0 0.0 0.0 16.28999089631971 0.0 0.0 0.0 34.46413024517268" Properties=species:S:1:pos:R:3:initial_magmoms:R:1 pbc="T T T"
Si       1.70149865      -1.56483369       0.23925013       0.00000000
Si      -0.64975108      -0.71200332      -2.11951073       0.00000000
Si       1.42471525       1.88208144       0.07526970       0.00000000
Si      -1.77826431      -0.78159420       1.40041625       0.00000000
Si       2.77929391      -0.83219094      -1.73016923       0.00000000
Si      -2.79247971       0.11808621      -2.07201913       0.00000000
Si       0.38800337      -3.49127280       0.34160865       0.00000000
Si      -0.29785125      -3.02606298      -1.87347117       0.00000000
Si       1.24151792       2.40199308       2.38829663       0.00000000
Si       1.21613810      -0.29900295      -3.42484039       0.00000000
