10
Lattice="16.28999089631971 0.0 0.0 0.0 16.28999089631971 0.0 0.0 0.0 34.46413024517268" Properties=species:S:1:pos:R:3:initial_magmoms:R:1 pbc="T T T"
Si      -1.34095732      -1.37621178       1.35406197       0.00000000
Si       1.35662663      -1.35466011      -1.36129944       0.00000000
Si      -1.36101031       1.36106208      -1.36316051       0.00000000
Si       1.37809685       1.36809936       1.39421270       0.00000000
Si      -2.65681465       0.00578295       2.65136149       0.00000000
Si       2.71236025      -2.71365336      -0.00041357       0.00000000
Si      -2.71664782      -2.71344159      -0.00210231       0.00000000
Si       2.71157833       2.71948518      -0.00113732       0.00000000
Si      -0.00130085      -2.71256193      -2.71925586       0.00000000
Si       2.71387522       0.00247608      -2.71925586       0.00000000
