10
Lattice="16.28999089631971 0.0 0.0 0.0 16.28999089631971 0.0 0.0 0.0 34.46413024517268" Properties=species:S:1:pos:R:3:initial_magmoms:R:1 pbc="T T T"
Si      -1.84244135      -0.91795779      -1.09747638       0.00000000
Si      -1.32072967       1.42011333       1.29719612       0.00000000
Si       1.57752360      -1.76850756       0.15343439       0.00000000
Si       1.10449458       1.87636365      -0.96613350       0.00000000
Si       2.20923351       0.49008465      -2.49031051       0.00000000
Si       2.17324890       2.27159163       1.27338140       0.00000000
Si      -0.54181029      -2.24044515      -2.51378060       0.00000000
Si       0.63674352      -0.94302810       3.46878218       0.00000000
Si       2.50258383       0.29478384       2.67376318       0.00000000
Si       0.91224000      -2.85459444       2.18619886       0.00000000
