10
Lattice="16.28999089631971 0.0 0.0 0.0 16.28999089631971 0.0 0.0 0.0 34.46413024517268" Properties=species:S:1:pos:R:3:initial_magmoms:R:1 pbc="T T T"
Si       1.35616856      -1.35832536       1.36092034       0.00000000
Si      -1.35859704       1.35909772       1.36112712       0.00000000
Si       1.35530519       1.34418564      -1.38060970       0.00000000
Si      -1.35519064      -1.37021706      -1.39468486       0.00000000
Si      -0.09948955       2.66433443      -2.72346393       0.00000000
Si       2.71091012      -2.71440270       0.00382552       0.00000000
Si      -2.71485623      -2.71494027      -0.00027571       0.00000000
Si       2.71578083       2.71468519       0.00017232       0.00000000
Si       2.71359797       0.00070047       2.71798069       0.00000000
Si      -0.00125596      -2.71476108       2.71822194       0.00000000
