10
Lattice="16.28999089631971 0.0 0.0 0.0 16.28999089631971 0.0 0.0 0.0 34.46413024517268" Properties=species:S:1:pos:R:3:initial_magmoms:R:1 pbc="T T T"
Si       1.18946322      -1.52055747       1.32170013       0.00000000
Si      -1.33988508      -1.37275830      -1.38066829       0.00000000
Si       1.37694483       1.34267843      -1.37856598       0.00000000
Si      -1.42350165       1.50602746       1.62364055       0.00000000
Si       2.34180153      -0.32361714       2.95505957       0.00000000
Si      -2.68469137       2.68528174      -0.02746793       0.00000000
Si      -2.67336656      -2.72414412       0.01468173       0.00000000
Si       2.72280834       2.70294987       0.01519869       0.00000000
Si      -2.69576042      -0.01925478      -2.74207113       0.00000000
Si       0.01830996       2.69658211      -2.74172649       0.00000000
