10
Lattice="16.28999089631971 0.0 0.0 0.0 16.28999089631971 0.0 0.0 0.0 34.46413024517268" Properties=species:S:1:pos:R:3:initial_magmoms:R:1 pbc="T T T"
Si      -1.87345818       1.47774313      -0.25930826       0.00000000
Si       1.93506955       0.80692582      -1.36491818       0.00000000
Si      -0.62971715      -1.98482247      -1.52321202       0.00000000
Si       0.16432700      -0.27829836       2.61214128       0.00000000
Si       2.34880297      -1.15514019       2.50027065       0.00000000
Si       0.67387983       1.98618010      -3.01602665       0.00000000
Si      -0.75588273       3.22343981      -1.63928727       0.00000000
Si      -2.05465185      -0.73389708      -3.00455009       0.00000000
Si       2.75668828       2.62681856       0.05007641       0.00000000
Si      -1.49320071      -1.95722721       2.91887221       0.00000000
