10
Lattice="16.28999089631971 0.0 0.0 0.0 16.28999089631971 0.0 0.0 0.0 34.46413024517268" Properties=species:S:1:pos:R:3:initial_magmoms:R:1 pbc="T T T"
Si      -2.32986815      -0.26438670      -0.24466100       0.00000000
Si       1.25871201      -1.26159534       1.57625234       0.00000000
Si       1.02242556      -1.03723317      -1.88708451       0.00000000
Si      -0.10792125       2.30293359       0.64682316       0.00000000
Si      -2.51466191      -1.09630071      -2.44833318       0.00000000
Si      -2.99265938      -1.48455657       1.64748974       0.00000000
Si       2.61821025       0.47745990      -2.67951870       0.00000000
Si       2.07650259       3.11521768       0.49893749       0.00000000
Si       1.96375950      -3.03647229      -1.21279342       0.00000000
Si       2.11240575       0.14835303       3.20227092       0.00000000
