10
Lattice="10.86 0.0 0.0 0.0 10.86 0.0 0.0 0.0 10.86" Properties=species:S:1:pos:R:3:initial_magmoms:R:1 pbc="T T T"
Si      -1.35750000      -1.35750000       1.35750000       0.00000000
Si      -1.35750000       1.35750000      -1.35750000       0.00000000
Si       1.35750000       1.35750000       1.35750000       0.00000000
Si       1.35750000      -1.35750000      -1.35750000       0.00000000
Si      -2.74281246      -2.58788370      -0.12856068       0.00000000
Si      -2.74320342      -0.09073530      -2.61077658       0.00000000
Si      -2.49942900      -0.10045500       2.84711190       0.00000000
Si       2.64167328      -0.01928736       2.72658762       0.00000000
Si       2.70484590      -2.69249808      -0.13007022       0.00000000
Si       2.64470322      -0.11146704      -2.76241476       0.00000000
