10
Lattice="10.86 0.0 0.0 0.0 10.86 0.0 0.0 0.0 10.86" Properties=species:S:1:pos:R:3:initial_magmoms:R:1 pbc="T T T"
Si      -1.28417328      -1.33821264       1.34591238       0.00000000
Si      -1.28417328       1.37678736      -1.36908762       0.00000000
Si       1.43082672       1.37678736       1.34591238       0.00000000
Si       2.48589744       0.03550134      -2.76312066       0.00000000
Si      -2.64167328      -2.69571264      -0.01158762       0.00000000
Si      -2.64167328       0.01928736       2.70341238       0.00000000
Si      -2.64167328       0.01928736      -2.72658762       0.00000000
Si      -2.64167328       2.73428736      -0.01158762       0.00000000
Si       0.07332672      -2.69571264       2.70341238       0.00000000
Si       0.07332672       2.73428736       2.70341238       0.00000000
