10
Lattice="10.86 0.0 0.0 0.0 10.86 0.0 0.0 0.0 10.86" Properties=species:S:1:pos:R:3:initial_magmoms:R:1 pbc="T T T"
Si      -1.28701860      -1.30966170       1.38347712       0.00000000
Si      -1.28701860       1.40533830      -1.33152288       0.00000000
Si       1.42798140      -1.30966170      -1.33152288       0.00000000
Si      -2.65467270       0.07034022       2.61090690       0.00000000
Si      -2.64451860      -2.66716170       0.02597712       0.00000000
Si      -2.64451860       0.04783830      -2.68902288       0.00000000
Si       0.07048140      -2.66716170      -2.68902288       0.00000000
Si      -2.71481538       2.65137126      -0.02143764       0.00000000
Si       2.75766894       0.17495460       2.61241644       0.00000000
Si       0.07048140      -2.66716170       2.74097712       0.00000000
