10
Lattice="10.86 0.0 0.0 0.0 10.86 0.0 0.0 0.0 10.86" Properties=species:S:1:pos:R:3:initial_magmoms:R:1 pbc="T T T"
Si      -1.29263322      -1.40820534       1.24025544       0.00000000
Si       1.73289762       0.77696784       1.31800218       0.00000000
Si      -1.29263322       1.30679466      -1.47474456       0.00000000
Si       1.42236678      -1.40820534      -1.47474456       0.00000000
Si       0.27286836       2.20705608       2.46553494       0.00000000
Si       2.61080916       2.53042344      -0.10846968       0.00000000
Si      -2.65013322      -0.05070534       2.59775544       0.00000000
Si      -2.65013322       2.66429466      -0.11724456       0.00000000
Si      -2.65013322      -2.76570534      -0.11724456       0.00000000
Si      -2.65013322      -0.05070534      -2.83224456       0.00000000
