10
Lattice="10.86 0.0 0.0 0.0 10.86 0.0 0.0 0.0 10.86" Properties=species:S:1:pos:R:3:initial_magmoms:R:1 pbc="T T T"
Si      -1.18844238       1.49137122      -1.36627488       0.00000000
Si       1.52655762      -1.22362878      -1.36627488       0.00000000
Si      -0.87791154      -1.75345560       1.42647186       0.00000000
Si       1.52655762       1.49137122       1.34872512       0.00000000
Si      -2.33794080      -0.32336736       2.57400462       0.00000000
Si      -2.61080916      -2.53042344       0.10846968       0.00000000
Si      -2.54594238       0.13387122      -2.72377488       0.00000000
Si       0.16905762      -2.58112878      -2.72377488       0.00000000
Si      -2.54594238       2.84887122      -0.00877488       0.00000000
Si       2.84688384       0.10201884       2.61430608       0.00000000
