10
Lattice="16.28999089631971 0.0 0.0 0.0 16.28999089631971 0.0 0.0 0.0 34.28971787722196" Properties=species:S:1:pos:R:3:initial_magmoms:R:1 pbc="T T T"
Si      -1.03298378      -1.52741556      -1.52441884       0.00000000
Si       0.09781168      -0.65067147       2.31898063       0.00000000
Si       1.54535574       1.29593466      -1.52339015       0.00000000
Si       1.38419877       3.04341183       0.56800949       0.00000000
Si      -2.52171059      -2.88885068       0.03278099       0.00000000
Si      -2.33732408       0.04254948      -3.07599515       0.00000000
Si       0.38680605      -2.68446657      -3.09200846       0.00000000
Si       0.36498885       2.76047082      -3.09314002       0.00000000
Si      -3.83877338      -1.19474118       1.08016101       0.00000000
Si       3.46610964       2.27234097      -0.44144607       0.00000000
