10
Lattice="16.28999089631971 0.0 0.0 0.0 16.28999089631971 0.0 0.0 0.0 34.28971787722196" Properties=species:S:1:pos:R:3:initial_magmoms:R:1 pbc="T T T"
Si      -1.35607734      -1.35759351       1.35739353       0.00000000
Si       1.35940050       1.35710308       1.35773643       0.00000000
Si      -1.35739683       1.35871905      -1.35818219       0.00000000
Si       1.35938421      -1.35883155      -1.35993097       0.00000000
Si      -2.71135647       2.71452271       0.00058293       0.00000000
Si      -2.71301805      -0.00059860       2.71495851       0.00000000
Si       0.00351864       2.71204663      -2.71640554       0.00000000
Si      -2.71402803      -2.71451793       0.00089153       0.00000000
Si       2.70487305       0.01221630      -2.72437104       0.00000000
Si       0.00190593       2.71507657       2.71495851       0.00000000
