10
Lattice="16.28999089631971 0.0 0.0 0.0 16.28999089631971 0.0 0.0 0.0 34.28971787722196" Properties=species:S:1:pos:R:3:initial_magmoms:R:1 pbc="T T T"
Si      -0.74735262      -1.97959827       1.15515266       0.00000000
Si      -1.43822781       1.26096003      -1.49873583       0.00000000
Si       1.29686319      -1.41851202      -1.50466795       0.00000000
Si       0.79459362       1.82273697       1.44040898       0.00000000
Si       2.64495843       2.74403421       0.02540870       0.00000000
Si      -1.05836130       3.49700688       1.15779297       0.00000000
Si       2.70347211      -2.79284115      -0.19404562       0.00000000
Si      -0.07374483       2.63109564      -2.87786905       0.00000000
Si      -2.97911520       2.52060057       0.07584890       0.00000000
Si       2.64049497      -0.08190612      -2.88373260       0.00000000
