10
Lattice="16.28999089631971 0.0 0.0 0.0 16.28999089631971 0.0 0.0 0.0 34.28971787722196" Properties=species:S:1:pos:R:3:initial_magmoms:R:1 pbc="T T T"
Si      -2.09085408       0.82321841       0.57767920       0.00000000
Si      -0.39617280      -1.09873118      -2.00848706       0.00000000
Si       0.91310337      -1.44416130       1.60225654       0.00000000
Si       2.00182923       1.21223990      -0.43091913       0.00000000
Si       2.61669528      -2.10762042       0.07636324       0.00000000
Si       1.66718376      -2.23904814      -2.11039616       0.00000000
Si      -1.77204249       3.13033853       0.27623812       0.00000000
Si      -3.56726565      -0.88737331      -0.12244865       0.00000000
Si       1.16015751      -0.05572483       3.55224531       0.00000000
Si      -2.44713267      -2.32077507      -1.71980176       0.00000000
