10
Lattice="16.28999089631971 0.0 0.0 0.0 16.28999089631971 0.0 0.0 0.0 34.28971787722196" Properties=species:S:1:pos:R:3:initial_magmoms:R:1 pbc="T T T"
Si       1.78282647       0.76832111       1.40175557       0.00000000
Si      -0.80084898      -1.88784063       1.34698801       0.00000000
Si       0.52087275       1.30712426      -2.03238700       0.00000000
Si      -1.89117126       1.76146865       0.22555279       0.00000000
Si      -3.24522864      -1.16808327      -0.83042885       0.00000000
Si       0.42728670       2.10020291       2.85977234       0.00000000
Si      -2.28022533      -0.62836299       2.84460599       0.00000000
Si       2.61327438       2.79290258       0.25792161       0.00000000
Si      -0.95607639       3.45854456       1.50535516       0.00000000
Si      -0.78804504       0.48667190      -3.79059327       0.00000000
