10
Lattice="16.28999089631971 0.0 0.0 0.0 16.28999089631971 0.0 0.0 0.0 34.28971787722196" Properties=species:S:1:pos:R:3:initial_magmoms:R:1 pbc="T T T"
Si       1.33553565       1.35337320       1.38460587       0.00000000
Si      -1.37541357      -1.36357074       1.38326857       0.00000000
Si      -1.46064285       1.29516903      -1.42880191       0.00000000
Si       1.44531396      -1.37780820      -1.41825781       0.00000000
Si      -0.54576387      -2.02864257      -2.57639403       0.00000000
Si      -2.42142705      -0.48824388      -2.69523646       0.00000000
Si       2.68682373       2.71593396       0.01042065       0.00000000
Si      -2.73955446       2.69333973       0.02048469       0.00000000
Si       2.69633709      -0.00210141       2.74107357       0.00000000
Si       2.69715159      -2.74059702       0.01766264       0.00000000
