10
Lattice="16.28999089631971 0.0 0.0 0.0 16.28999089631971 0.0 0.0 0.0 34.28971787722196" Properties=species:S:1:pos:R:3:initial_magmoms:R:1 pbc="T T T"
Si       0.93252105       1.81076382      -1.23072724       0.00000000
Si      -1.92075390      -0.97640631      -1.08194407       0.00000000
Si      -2.08191087       0.77107086       1.00945557       0.00000000
Si       1.85295492      -1.67426991       0.28261601       0.00000000
Si      -0.27464940       0.94749156       2.59775619       0.00000000
Si       1.57618782      -0.66494151       2.58623484       0.00000000
Si      -0.37986651      -2.23604685      -2.65652880       0.00000000
Si       2.34966960       0.49630743      -2.66009493       0.00000000
Si       2.13314292       3.07858194       0.40551043       0.00000000
Si       1.05836130      -3.49700688      -1.15779297       0.00000000
