10
Lattice="16.28999089631971 0.0 0.0 0.0 16.28999089631971 0.0 0.0 0.0 34.28971787722196" Properties=species:S:1:pos:R:3:initial_magmoms:R:1 pbc="T T T"
Si       1.35721764      -1.35726651      -1.35711921       0.00000000
Si      -1.35759231      -1.35736425       1.35708492       0.00000000
Si      -1.35790182       1.35782037      -1.35718779       0.00000000
Si       1.35764118       1.35708732       1.35838793       0.00000000
Si       2.71448415      -2.71502172      -0.00003429       0.00000000
Si      -0.00063531      -2.71510317      -2.71447845       0.00000000
Si      -2.71453302      -2.71505430       0.00054864       0.00000000
Si       0.00045612       2.71441899      -2.71554144       0.00000000
Si       2.71472850       2.71541268       0.00013716       0.00000000
Si      -2.71520091       2.71523349      -0.00010287       0.00000000
