10
Lattice="16.28999089631971 0.0 0.0 0.0 16.28999089631971 0.0 0.0 0.0 34.28971787722196" Properties=species:S:1:pos:R:3:initial_magmoms:R:1 pbc="T T T"
Si      -0.49952145       1.62873382      -1.66120060       0.00000000
Si       2.37277371      -0.11032860      -0.26241936       0.00000000
Si      -0.44895892       1.59872764       1.73351766       0.00000000
Si      -0.56240085      -2.37393813       0.22950121       0.00000000
Si       2.03625489      -1.25432643      -2.31490015       0.00000000
Si       2.71830090      -0.10646787       2.25256141       0.00000000
Si      -1.20249752       0.06004641       3.32500722       0.00000000
Si       0.83416692      -1.25782878       3.21733745       0.00000000
Si       1.78152816       2.08742764       2.43333690       0.00000000
Si      -2.49382211       2.61548428      -0.87209088       0.00000000
