10
Lattice="16.28999089631971 0.0 0.0 0.0 16.28999089631971 0.0 0.0 0.0 34.28971787722196" Properties=species:S:1:pos:R:3:initial_magmoms:R:1 pbc="T T T"
Si       1.30715847       0.56356884       1.85973818       0.00000000
Si      -0.45432810       1.54790838      -1.77247080       0.00000000
Si      -1.62489492      -1.56561561       0.87099361       0.00000000
Si       1.63092222      -1.03961151      -1.67296198       0.00000000
Si      -2.94764292       1.70893503      -0.73482906       0.00000000
Si       2.52584595       2.34048204       1.03849898       0.00000000
Si      -0.32931864      -3.46553460       1.35543902       0.00000000
Si       3.02477607      -1.10328912       1.92663746       0.00000000
Si      -2.88197793      -2.10732327      -1.21759427       0.00000000
Si       0.96795180       0.67792464      -3.58331181       0.00000000
