10
Lattice="16.28999089631971 0.0 0.0 0.0 16.28999089631971 0.0 0.0 0.0 34.28971787722196" Properties=species:S:1:pos:R:3:initial_magmoms:R:1 pbc="T T T"
Si       0.88058853      -0.32500179       2.10421341       0.00000000
Si      -1.81146429       1.56408435       0.13290702       0.00000000
Si      -1.81939752      -1.47909942      -0.90943241       0.00000000
Si       1.59855399       2.02965255      -0.30723604       0.00000000
Si      -0.39693843       2.37157965      -1.63267154       0.00000000
Si      -0.91958679      -1.20246264       3.32886966       0.00000000
Si      -3.61217392       0.31858353      -0.85354013       0.00000000
Si       3.18371760      -2.15378235      -0.40808216       0.00000000
Si      -0.40667985       1.16848170      -3.67826009       0.00000000
Si       2.64020175      -2.04032250       2.00615536       0.00000000
