10
Lattice="16.28999089631971 0.0 0.0 0.0 16.28999089631971 0.0 0.0 0.0 34.28971787722196" Properties=species:S:1:pos:R:3:initial_magmoms:R:1 pbc="T T T"
Si       1.35703845      -1.35702216       1.35739353       0.00000000
Si       1.35842310       1.35716877      -1.35790788       0.00000000
Si      -1.35723393      -1.35801585      -1.35828506       0.00000000
Si      -1.35816246       1.35782037       1.35794217       0.00000000
Si       2.71489140      -0.00063531       2.71290113       0.00000000
Si       2.71448415      -2.71414206       0.00017145       0.00000000
Si      -0.00079821       2.71448415       2.71461561       0.00000000
Si      -2.71559187      -2.71461447       0.00006858       0.00000000
Si       2.71463076       2.71560816       0.00065151       0.00000000
Si       0.00206883      -2.71427238      -2.71619294       0.00000000
