10
Lattice="16.28999089631971 0.0 0.0 0.0 16.28999089631971 0.0 0.0 0.0 34.28971787722196" Properties=species:S:1:pos:R:3:initial_magmoms:R:1 pbc="T T T"
Si      -0.93509487      -1.69707591      -1.27980237       0.00000000
Si       1.69368759       0.87475671      -1.36627598       0.00000000
Si      -1.34907264       1.37505519       1.34700031       0.00000000
Si       1.38336309      -1.35834165       1.35441718       0.00000000
Si      -1.51958007      -0.46652931      -3.28766711       0.00000000
Si       0.71840529       0.29874231      -3.57014596       0.00000000
Si       2.65447179       2.65816962      -0.09984143       0.00000000
Si      -2.69105587      -0.00008145       2.71058314       0.00000000
Si      -2.68358202      -2.72864016      -0.03925832       0.00000000
Si       0.02244762      -2.71166924       2.71264052       0.00000000
