10
Lattice="16.28999089631971 0.0 0.0 0.0 16.28999089631971 0.0 0.0 0.0 34.28971787722196" Properties=species:S:1:pos:R:3:initial_magmoms:R:1 pbc="T T T"
Si       2.05095987       1.22204389      -0.28868530       0.00000000
Si      -1.12013298       1.43340175       1.59735311       0.00000000
Si       1.07370648      -2.09394918       0.72224473       0.00000000
Si       0.63851913       1.71900455      -2.34089177       0.00000000
Si      -2.41846227      -1.12065426      -2.02707209       0.00000000
Si      -1.16346438      -0.27191268       3.21226257       0.00000000
Si       2.25665370      -0.08702118      -2.64511032       0.00000000
Si       0.57137175      -1.83749571       3.13970548       0.00000000
Si      -0.71128656      -2.96336277      -2.10645284       0.00000000
Si       2.44713267       2.32077507       1.71980176       0.00000000
