10
Lattice="16.28999089631971 0.0 0.0 0.0 16.28999089631971 0.0 0.0 0.0 34.28971787722196" Properties=species:S:1:pos:R:3:initial_magmoms:R:1 pbc="T T T"
Si      -1.65371193       1.49175675      -0.78681231       0.00000000
Si      -1.40724423      -1.53976338       1.11390211       0.00000000
Si       0.81314793       1.56905280       1.57935100       0.00000000
Si       1.36529748      -0.80668080      -1.80542323       0.00000000
Si      -2.82825351      -0.03196098       2.34713250       0.00000000
Si      -2.82025512       2.07721935       1.22644102       0.00000000
Si       2.58398496       0.97023240      -2.62666244       0.00000000
Si      -0.60297435       3.30924834      -1.80017690       0.00000000
Si      -2.68651422      -2.68320735      -0.59406969       0.00000000
Si       1.50586389       0.52010712       3.52783102       0.00000000
