10
Lattice="16.28999089631971 0.0 0.0 0.0 16.28999089631971 0.0 0.0 0.0 34.28971787722196" Properties=species:S:1:pos:R:3:initial_magmoms:R:1 pbc="T T T"
Si      -0.00799839      -2.10918033       1.12069148       0.00000000
Si       1.16654319      -0.58546260      -2.01325333       0.00000000
Si      -1.62437364       1.23136110       1.43104789       0.00000000
Si       2.06920467       1.19262348       0.81616432       0.00000000
Si      -1.96990083       1.22750037      -1.08393288       0.00000000
Si       0.51943923       1.50796597       2.67336506       0.00000000
Si      -0.57158352      -1.48208049      -3.20897075       0.00000000
Si       3.63340305      -0.50816655       0.35290997       0.00000000
Si       2.82025512      -2.07721935      -1.22644102       0.00000000
Si       2.46433491       2.62046546      -1.07662916       0.00000000
