10
Lattice="16.28999089631971 0.0 0.0 0.0 16.28999089631971 0.0 0.0 0.0 34.28971787722196" Properties=species:S:1:pos:R:3:initial_magmoms:R:1 pbc="T T T"
Si      -0.26757954      -2.04597513      -1.11297628       0.00000000
Si      -1.87395273       0.06125040       1.41133129       0.00000000
Si      -0.38160954       1.45173289      -1.85888093       0.00000000
Si       1.99770786      -0.27196155       1.32615558       0.00000000
Si       3.47778468       0.12958695      -0.51952381       0.00000000
Si      -1.52568882      -2.05182324       2.50987159       0.00000000
Si      -1.53543024      -3.25492119       0.46428304       0.00000000
Si       2.46106062       1.99392111      -1.77418528       0.00000000
Si      -1.94409747       2.29573408       2.23411353       0.00000000
Si      -3.71444580       0.55322469       0.01361303       0.00000000
