10
Lattice="16.28999089631971 0.0 0.0 0.0 16.28999089631971 0.0 0.0 0.0 34.28971787722196" Properties=species:S:1:pos:R:3:initial_magmoms:R:1 pbc="T T T"
Si       2.07933705      -1.04503608      -0.27136898       0.00000000
Si       0.26757954       2.04597513       1.11297628       0.00000000
Si      -1.26785070      -1.20894606       1.57725932       0.00000000
Si      -0.64146762      -0.11943828      -2.29857823       0.00000000
Si      -0.11403000       3.49770802      -0.74590465       0.00000000
Si      -0.25559010      -3.37007520       1.35602194       0.00000000
Si      -1.60637319       2.10722553       2.52430757       0.00000000
Si      -2.70673011      -1.16686899      -2.23538225       0.00000000
Si       2.26528740       1.77401358       2.43913186       0.00000000
Si       1.84480992      -2.85856920      -1.76979620       0.00000000
