10
Lattice="16.28999089631971 0.0 0.0 0.0 16.28999089631971 0.0 0.0 0.0 34.28971787722196" Properties=species:S:1:pos:R:3:initial_magmoms:R:1 pbc="T T T"
Si       1.25183763      -1.36278882       1.43592046       0.00000000
Si      -1.99107783      -0.65083437      -1.15813621       0.00000000
Si      -1.44531396       1.37780820       1.41825781       0.00000000
Si       1.94038335       0.87412140      -1.38252246       0.00000000
Si      -1.17094149       0.00695583      -3.25028444       0.00000000
Si       1.13176404      -0.23617242      -3.44292418       0.00000000
Si       2.64396474      -2.67378033      -0.01254661       0.00000000
Si       2.60835480       0.01557324       2.79885178       0.00000000
Si      -2.82152574      -2.67541584      -0.01430225       0.00000000
Si      -0.10520082      -2.69613021       2.80279510       0.00000000
