10
Lattice="16.28999089631971 0.0 0.0 0.0 16.28999089631971 0.0 0.0 0.0 34.28971787722196" Properties=species:S:1:pos:R:3:initial_magmoms:R:1 pbc="T T T"
Si      -1.34363178      -1.33660590       1.37906464       0.00000000
Si      -1.35500220       1.35097857      -1.35650200       0.00000000
Si       1.35861858      -1.36156381      -1.35670774       0.00000000
Si       1.34236116       1.34884458       1.39737536       0.00000000
Si       0.06297714      -2.71093503       2.68968697       0.00000000
Si       2.49447141      -0.20272905       2.89179068       0.00000000
Si       0.00188964       2.71083519      -2.71327831       0.00000000
Si      -2.71274112      -0.00358380      -2.71317544       0.00000000
Si      -2.71423980       2.71300176       0.00586355       0.00000000
Si       2.71707426      -0.00394218      -2.71283255       0.00000000
