10
Lattice="16.28999089631971 0.0 0.0 0.0 16.28999089631971 0.0 0.0 0.0 34.28971787722196" Properties=species:S:1:pos:R:3:initial_magmoms:R:1 pbc="T T T"
Si      -1.35303111      -1.34974053      -1.35670774       0.00000000
Si      -1.18042227       1.50096060       1.36445722       0.00000000
Si       1.36337526       1.35972630      -1.35557617       0.00000000
Si       1.20821301      -1.35413883       1.51570925       0.00000000
Si       2.13542352       0.60289290       2.74856245       0.00000000
Si       0.51644187       2.39909346       2.75058555       0.00000000
Si      -2.54014857       0.23402214       2.75380878       0.00000000
Si       0.00317655      -2.70928764      -2.71711876       0.00000000
Si      -2.71241532       0.00478926      -2.71766740       0.00000000
Si       2.71668330      -2.71375110       0.04663404       0.00000000
