10
Lattice="16.28999089631971 0.0 0.0 0.0 16.28999089631971 0.0 0.0 0.0 34.28971787722196" Properties=species:S:1:pos:R:3:initial_magmoms:R:1 pbc="T T T"
Si       1.35972630       1.26693846      -1.38935157       0.00000000
Si      -1.20159927       1.45904643       1.39967278       0.00000000
Si       1.43042490      -1.16667351       1.50936565       0.00000000
Si      -1.52640558      -1.47095442      -1.20500994       0.00000000
Si      -1.67630616      -0.08565282       3.11213653       0.00000000
Si      -0.18013482       2.50119918      -2.72545117       0.00000000
Si       2.27789586      -2.94959772       0.12467748       0.00000000
Si       3.05659044       2.16507132      -0.00322324       0.00000000
Si       2.54014857      -0.23402214      -2.75380878       0.00000000
Si       0.38032263      -1.19461086       3.65144552       0.00000000
