10
Lattice="16.28999089631971 0.0 0.0 0.0 16.28999089631971 0.0 0.0 0.0 34.28971787722196" Properties=species:S:1:pos:R:3:initial_magmoms:R:1 pbc="T T T"
Si       0.50435469      -1.64077767       1.57359032       0.00000000
Si      -1.45767807      -1.25130006      -1.32190365       0.00000000
Si      -1.52601462       1.46061027       1.02786916       0.00000000
Si       1.16351325       0.92525571      -1.82243094       0.00000000
Si      -0.34911099       3.41353692       0.67598788       0.00000000
Si       0.67279329      -0.31483683       3.48483169       0.00000000
Si      -1.68619419      -2.44806120       2.06873413       0.00000000
Si       2.28967353      -2.77830837       0.50076732       0.00000000
Si       0.42073812       3.24978984      -1.60582268       0.00000000
Si      -0.40757580      -1.22336271      -3.46398353       0.00000000
