10
Lattice="16.28999089631971 0.0 0.0 0.0 16.28999089631971 0.0 0.0 0.0 34.28971787722196" Properties=species:S:1:pos:R:3:initial_magmoms:R:1 pbc="T T T"
Si      -1.39940874       1.83270645       0.20477831       0.00000000
Si      -0.86809410      -1.42400664      -1.64117539       0.00000000
Si       1.92810069       1.18084581      -0.82905726       0.00000000
Si      -0.39693843      -1.07031816       2.17036891       0.00000000
Si       0.88659954       2.08697706       2.78864715       0.00000000
Si      -2.69964396      -0.82718991       2.36300865       0.00000000
Si      -3.15561735      -1.63711242      -1.03164103       0.00000000
Si       3.18782268      -0.52833357      -1.91604193       0.00000000
Si       0.78560154      -3.22903638      -1.77521398       0.00000000
Si       2.72207529       2.35890603       1.15556414       0.00000000
