10
Lattice="16.28999089631971 0.0 0.0 0.0 16.28999089631971 0.0 0.0 0.0 34.28971787722196" Properties=species:S:1:pos:R:3:initial_magmoms:R:1 pbc="T T T"
Si       1.22614178       1.50443037      -1.27173502       0.00000000
Si      -1.29990683       1.32141222       1.40473051       0.00000000
Si      -1.20345258      -1.22754924      -1.63176770       0.00000000
Si       1.40402858      -1.37933946       1.38727018       0.00000000
Si      -2.29115333       0.61015824      -2.62785027       0.00000000
Si       1.89619835       0.31902336      -3.13588702       0.00000000
Si      -2.55783692      -2.64697839      -0.20699343       0.00000000
Si      -2.68455683       2.63899629       0.03529100       0.00000000
Si      -2.65477871      -0.03909600       2.75524209       0.00000000
Si       0.06294945       2.67920001       2.74944713       0.00000000
