10
Lattice="16.28999089631971 0.0 0.0 0.0 16.28999089631971 0.0 0.0 0.0 34.28971787722196" Properties=species:S:1:pos:R:3:initial_magmoms:R:1 pbc="T T T"
Si      -1.29663513      -2.07485730      -0.65006483       0.00000000
Si       2.16370296      -0.22742469       1.31778888       0.00000000
Si      -1.63092222       1.03961151       1.67296198       0.00000000
Si      -0.66297042       1.71753615      -1.91034983       0.00000000
Si      -2.08525032       2.58751989      -0.09950882       0.00000000
Si      -1.86875622       0.25169679      -3.27638437       0.00000000
Si      -3.19161825      -1.17330354      -1.71685284       0.00000000
Si       2.96155458      -1.36883241      -2.05296085       0.00000000
Si       1.39385385      -0.06367761       3.59959944       0.00000000
Si      -0.32376375       1.60318035       3.53270016       0.00000000
