10
Lattice="16.28999089631971 0.0 0.0 0.0 16.28999089631971 0.0 0.0 0.0 34.28971787722196" Properties=species:S:1:pos:R:3:initial_magmoms:R:1 pbc="T T T"
Si       1.46559501      -1.40227578       1.10567257       0.00000000
Si      -2.34303957       0.13660794       0.22401485       0.00000000
Si       1.18622151       1.88867889      -0.78256038       0.00000000
Si      -0.82041327      -1.65654639      -1.47819627       0.00000000
Si       3.30107076      -1.13034681      -0.52741045       0.00000000
Si      -2.82654306      -2.27335095      -0.46860355       0.00000000
Si       3.47496651       1.18947951      -0.59976179       0.00000000
Si      -2.78760996       1.04697459      -2.31709469       0.00000000
Si       0.06770124       3.78980334       0.36240823       0.00000000
Si      -1.57493349      -0.63653175      -3.42540757       0.00000000
