10
Lattice="16.28999089631971 0.0 0.0 0.0 16.28999089631971 0.0 0.0 0.0 34.28971787722196" Properties=species:S:1:pos:R:3:initial_magmoms:R:1 pbc="T T T"
Si       1.09647990       2.17696302       0.41524872       0.00000000
Si       1.11852027      -1.90112445      -1.14496861       0.00000000
Si      -0.37222650      -0.66122739       2.40857495       0.00000000
Si      -2.07684468       0.52043292      -1.41962940       0.00000000
Si      -2.21974056       0.99676881       2.27604988       0.00000000
Si      -1.67871708      -0.83601909      -3.25087281       0.00000000
Si       0.54400455      -1.53598410      -3.43586594       0.00000000
Si      -0.06770124      -3.78980334      -0.36240823       0.00000000
Si       1.65470562       0.01163106       3.49435193       0.00000000
Si       0.28347858       3.76808877      -1.05643251       0.00000000
