10
Lattice="16.28999089631971 0.0 0.0 0.0 16.28999089631971 0.0 0.0 0.0 34.28971787722196" Properties=species:S:1:pos:R:3:initial_magmoms:R:1 pbc="T T T"
Si      -0.69271596       1.04894568      -1.94848002       0.00000000
Si      -1.61331273      -1.47766590       0.84651074       0.00000000
Si       1.68347376      -1.55908332      -0.76857017       0.00000000
Si       0.05271444       1.74293226       1.71133220       0.00000000
Si       2.87529903      -1.45560924       1.29886095       0.00000000
Si      -0.63807930      -2.14666362       2.85283754       0.00000000
Si       1.28233251       2.05793199      -2.76323846       0.00000000
Si      -0.96400962       3.60726642       0.45667072       0.00000000
Si      -1.84783986      -3.29119902      -0.65191648       0.00000000
Si      -2.25691434       2.74973571      -1.48522567       0.00000000
