10
Lattice="16.28999089631971 0.0 0.0 0.0 16.28999089631971 0.0 0.0 0.0 34.28971787722196" Properties=species:S:1:pos:R:3:initial_magmoms:R:1 pbc="T T T"
Si       0.81300132      -1.59112575       1.47168122       0.00000000
Si       0.43771230       1.84905576       1.33428225       0.00000000
Si       0.74951919      -0.24865056      -2.18511349       0.00000000
Si      -2.32450155       0.37452520       0.27106037       0.00000000
Si       0.13704777       0.19502388       3.13432199       0.00000000
Si      -2.75147874      -1.11606048      -1.49026626       0.00000000
Si       1.01341719       2.01380957      -2.76416428       0.00000000
Si      -1.27140192      -0.71451198      -3.33594565       0.00000000
Si       3.14880813      -1.67914062       0.94615671       0.00000000
Si       2.73535164       2.54439116       0.92414270       0.00000000
