10
Lattice="16.28999089631971 0.0 0.0 0.0 16.28999089631971 0.0 0.0 0.0 34.28971787722196" Properties=species:S:1:pos:R:3:initial_magmoms:R:1 pbc="T T T"
Si      -0.81300132       1.59112575      -1.47168122       0.00000000
Si       2.33580681      -0.08801487      -0.52552451       0.00000000
Si      -1.09647990      -2.17696302      -0.41524872       0.00000000
Si      -0.67595355       1.78614963       1.66264077       0.00000000
Si       2.39787171      -1.25742510       1.68993540       0.00000000
Si      -0.37528902       3.44018151      -0.13739898       0.00000000
Si      -1.46870640      -2.83819041       1.99332623       0.00000000
Si       0.55822572      -2.16533196       3.07910321       0.00000000
Si       3.12613245       2.18206246      -0.08136955       0.00000000
Si      -3.13750287       1.96565095      -1.20062085       0.00000000
