10
Lattice="16.28999089631971 0.0 0.0 0.0 16.28999089631971 0.0 0.0 0.0 34.28971787722196" Properties=species:S:1:pos:R:3:initial_magmoms:R:1 pbc="T T T"
Si       1.20603015       1.53989600       1.47747417       0.00000000
Si       0.30066453       1.65403188      -1.80003975       0.00000000
Si      -1.62808776      -1.20060558       1.51483970       0.00000000
Si       0.67595355      -1.78614963      -1.66264077       0.00000000
Si      -0.13704777      -0.19502388      -3.13432199       0.00000000
Si      -2.46154932       0.17950132      -2.86326162       0.00000000
Si       2.52115443       0.15516256       2.92080121       0.00000000
Si      -0.17565507      -2.55086739       2.90781226       0.00000000
Si       2.21776947       3.27911903       0.18259285       0.00000000
Si      -2.64026691      -2.96634384       0.19816039       0.00000000
