10
Lattice="16.28999089631971 0.0 0.0 0.0 16.28999089631971 0.0 0.0 0.0 34.28971787722196" Properties=species:S:1:pos:R:3:initial_magmoms:R:1 pbc="T T T"
Si      -1.47748671       1.23546618      -1.32430393       0.00000000
Si      -1.13808456      -1.31010207       1.61024605       0.00000000
Si       1.31706279      -1.69410950      -1.04738002       0.00000000
Si      -0.86193648       0.93017529       2.12418063       0.00000000
Si      -0.00702099       2.59690293      -2.68708095       0.00000000
Si       2.05304499      -2.98578500       0.98130369       0.00000000
Si      -2.32495767       3.01839039       0.06038423       0.00000000
Si       2.80578960      -0.33267438      -2.60457985       0.00000000
Si      -2.79178020      -0.31455990      -2.67134196       0.00000000
Si      -0.02857266      -3.00049487      -2.58520614       0.00000000
