10
Lattice="16.28999089631971 0.0 0.0 0.0 16.28999089631971 0.0 0.0 0.0 34.28971787722196" Properties=species:S:1:pos:R:3:initial_magmoms:R:1 pbc="T T T"
Si       0.75353860       1.53868124      -1.59148957       0.00000000
Si      -0.28795833       0.94354889       2.15775028       0.00000000
Si      -1.79460414      -1.51273617      -0.38857130       0.00000000
Si       2.03666444      -1.31787519      -0.10766977       0.00000000
Si       0.68136576      -0.89127267       3.20787348       0.00000000
Si       2.73177503      -0.78841761       2.04236532       0.00000000
Si       1.20249752      -0.06004641      -3.32500722       0.00000000
Si      -3.26337570      -0.14569707      -1.63664915       0.00000000
Si       2.98402568       2.02738124      -0.89167032       0.00000000
Si       3.10527215       1.53224669       1.39274625       0.00000000
