10
Lattice="16.28999089631971 0.0 0.0 0.0 16.28999089631971 0.0 0.0 0.0 34.28971787722196" Properties=species:S:1:pos:R:3:initial_magmoms:R:1 pbc="T T T"
Si       1.20378213      -1.95345445       0.46616898       0.00000000
Si      -2.29763934      -0.69533539       0.41013954       0.00000000
Si      -0.38053440       0.92975175       2.39277214       0.00000000
Si       0.29084166       0.14680548      -2.66239234       0.00000000
Si      -2.90447442       1.62813663       0.25727590       0.00000000
Si      -2.73535164      -2.54439116      -0.92414270       0.00000000
Si       3.38195454      -2.00727661      -0.49490377       0.00000000
Si      -1.39227372      -0.80947128       3.68765346       0.00000000
Si       2.44307646      -2.09332430       2.50253603       0.00000000
Si      -1.72193445      -0.53058159      -3.68830699       0.00000000
