10
Lattice="16.28999089631971 0.0 0.0 0.0 16.28999089631971 0.0 0.0 0.0 34.28971787722196" Properties=species:S:1:pos:R:3:initial_magmoms:R:1 pbc="T T T"
Si      -1.35562122       1.35402480       1.36113111       0.00000000
Si       1.35715382       1.35729909      -1.35694776       0.00000000
Si      -1.35762489      -1.35729909      -1.35667345       0.00000000
Si       1.35807337      -1.35759231       1.36102824       0.00000000
Si       2.71258052       2.71526607       0.00037719       0.00000000
Si      -0.00013032       2.71485882      -2.71382695       0.00000000
Si       2.71471940      -0.00017919      -2.71406698       0.00000000
Si      -2.71497285       0.00001629      -2.71399840       0.00000000
Si       0.00001629      -2.71471221      -2.71447845       0.00000000
Si       2.71399123      -2.71596654       0.00034290       0.00000000
