10
Lattice="16.28999089631971 0.0 0.0 0.0 16.28999089631971 0.0 0.0 0.0 34.28971787722196" Properties=species:S:1:pos:R:3:initial_magmoms:R:1 pbc="T T T"
Si       2.29165181       0.41117589      -0.05112600       0.00000000
Si      -0.38944503      -2.02331574       1.16674259       0.00000000
Si      -1.25972199       1.70917938       1.08698466       0.00000000
Si      -0.68351211      -0.52215966      -2.28667969       0.00000000
Si       1.39098681      -3.27342011       0.21756838       0.00000000
Si      -1.87566318       2.87101476      -0.98185233       0.00000000
Si       3.07575792      -1.70134389       0.61978700       0.00000000
Si      -2.40222114      -2.70070281       0.14082795       0.00000000
Si      -2.32632603       1.18120419      -2.56497520       0.00000000
Si      -3.18782268       0.52833357       1.91604193       0.00000000
