10
Lattice="16.28999089631971 0.0 0.0 0.0 16.28999089631971 0.0 0.0 0.0 34.28971787722196" Properties=species:S:1:pos:R:3:initial_magmoms:R:1 pbc="T T T"
Si       1.08770075      -1.83770748       0.99608257       0.00000000
Si      -1.84269222       0.78569928       1.24091129       0.00000000
Si      -1.43452998      -0.18630873      -1.87890614       0.00000000
Si       0.71547309       2.35556658      -0.46551747       0.00000000
Si      -1.26063423       2.13351759      -1.95125749       0.00000000
Si       2.39519756      -1.76515182      -1.17120026       0.00000000
Si      -3.27000573      -0.45823770      -0.24582312       0.00000000
Si      -0.39340350       2.02883805       2.66314127       0.00000000
Si       2.29115333      -0.61015824       2.62785027       0.00000000
Si       3.51729512       0.89427213       1.35611525       0.00000000
