10
Lattice="16.28999089631971 0.0 0.0 0.0 16.28999089631971 0.0 0.0 0.0 34.28971787722196" Properties=species:S:1:pos:R:3:initial_magmoms:R:1 pbc="T T T"
Si       1.25773461      -1.33876107       1.43742578       0.00000000
Si       1.36359840       1.33678998      -1.35032984       0.00000000
Si      -1.39329999       1.33371117       1.33963145       0.00000000
Si      -1.34926812      -1.38264633      -1.34501494       0.00000000
Si      -0.57721986      -2.13947973       2.75912369       0.00000000
Si      -2.19620151      -0.34327917       2.76114679       0.00000000
Si       2.72075810       2.66312178       0.01128132       0.00000000
Si       0.00591327       2.69057043      -2.70720903       0.00000000
Si      -2.70971118      -0.02217069      -2.70391721       0.00000000
Si       2.71893362      -0.02140506      -2.70576886       0.00000000
