10
Lattice="16.28999089631971 0.0 0.0 0.0 16.28999089631971 0.0 0.0 0.0 34.28971787722196" Properties=species:S:1:pos:R:3:initial_magmoms:R:1 pbc="T T T"
Si       1.05871968       1.59819561       1.30866781       0.00000000
Si      -1.33700175       1.36203948      -1.32310379       0.00000000
Si      -0.80290152      -1.67699034       1.42151534       0.00000000
Si       1.39329999      -1.33371117      -1.33963145       0.00000000
Si      -2.49976566      -2.57512320       0.03538701       0.00000000
Si       2.65103460      -2.67247224       0.09779433       0.00000000
Si      -2.77112448       2.55588471       0.20028635       0.00000000
Si      -2.67854841       0.00623907      -2.68656661       0.00000000
Si       0.04403187      -2.71635750      -2.68464638       0.00000000
Si       0.04339656       2.72033226      -2.68097738       0.00000000
