10
Lattice="16.28999089631971 0.0 0.0 0.0 16.28999089631971 0.0 0.0 0.0 34.28971787722196" Properties=species:S:1:pos:R:3:initial_magmoms:R:1 pbc="T T T"
Si      -1.69445322      -0.89414181       1.47408151       0.00000000
Si       0.66468087       2.27696733       0.47981629       0.00000000
Si       1.86163002      -1.37617920      -0.89273330       0.00000000
Si      -1.25252181       0.75911400      -2.04990906       0.00000000
Si       1.67448561      -0.85346568       2.23726818       0.00000000
Si      -2.08202490       1.05380010       2.76536442       0.00000000
Si       0.52486380       0.58401279      -3.54295279       0.00000000
Si       2.59668531       2.42688420      -0.84390472       0.00000000
Si       3.55015205       0.26244819      -1.10268936       0.00000000
Si      -2.94993981      -0.95954616      -2.16738570       0.00000000
