10
Lattice="16.28999089631971 0.0 0.0 0.0 16.28999089631971 0.0 0.0 0.0 34.28971787722196" Properties=species:S:1:pos:R:3:initial_magmoms:R:1 pbc="T T T"
Si       1.54439204      -1.62875565      -0.60552247       0.00000000
Si      -1.15704612      -0.45949203       1.97512314       0.00000000
Si       1.38348431       1.84298544       0.41298559       0.00000000
Si      -0.92268189       0.55555416      -2.08941084       0.00000000
Si       0.81906120      -0.23744304       3.46086316       0.00000000
Si       2.51904717       0.96000228       2.35344181       0.00000000
Si       0.93915108      -2.08360503      -2.80229447       0.00000000
Si      -1.33094187      -2.77931835       2.04747449       0.00000000
Si       3.49439138      -0.50455017      -1.24382592       0.00000000
Si       0.77962311       1.56970440      -3.32898483       0.00000000
