10
Lattice="16.28999089631971 0.0 0.0 0.0 16.28999089631971 0.0 0.0 0.0 34.28971787722196" Properties=species:S:1:pos:R:3:initial_magmoms:R:1 pbc="T T T"
Si      -1.05871968      -1.59819561      -1.30866781       0.00000000
Si       0.81533079      -0.59021928       2.10803016       0.00000000
Si       1.70694011       1.03619061      -1.24471745       0.00000000
Si       2.04105296       1.51729947       2.42071828       0.00000000
Si      -2.39572143      -0.23615613      -2.63177161       0.00000000
Si       0.33560658       2.47699224      -2.60300252       0.00000000
Si      -0.96205482      -0.41511807       3.60107389       0.00000000
Si      -1.86162120      -3.27518595       0.11284752       0.00000000
Si      -2.87270892       2.52361422       0.38730258       0.00000000
Si       3.39608123       1.81548792       0.35462446       0.00000000
