10
Lattice="16.28999089631971 0.0 0.0 0.0 16.28999089631971 0.0 0.0 0.0 34.28971787722196" Properties=species:S:1:pos:R:3:initial_magmoms:R:1 pbc="T T T"
Si       1.09727552       0.44188254       2.00756123       0.00000000
Si       1.93200444       0.14991687      -1.32372101       0.00000000
Si      -1.69691301       1.67114223      -0.02976349       0.00000000
Si      -0.66468087      -2.27696733      -0.47981629       0.00000000
Si      -0.69162453      -0.44023725       3.32198972       0.00000000
Si      -1.91720268      -1.51785333      -2.52972535       0.00000000
Si       2.65374593      -1.40571297       1.87434561       0.00000000
Si      -3.55560201       0.47622186       0.75530004       0.00000000
Si       1.65967637       2.81582067       1.77806002       0.00000000
Si       1.00980474      -3.13043301       1.75745189       0.00000000
