10
Lattice="16.28999089631971 0.0 0.0 0.0 16.28999089631971 0.0 0.0 0.0 34.28971787722196" Properties=species:S:1:pos:R:3:initial_magmoms:R:1 pbc="T T T"
Si      -2.33580681       0.08801487       0.52552451       0.00000000
Si       0.79032564       2.27007733       0.44415496       0.00000000
Si       0.06206490      -1.16941023       2.21545991       0.00000000
Si       1.07681787      -0.47284983      -2.37768466       0.00000000
Si      -3.14880813       1.67914062      -0.94615671       0.00000000
Si       2.96849805       2.21625517      -0.51691779       0.00000000
Si       0.76141089       0.56493720       3.71351821       0.00000000
Si       2.02961997       2.13020748       2.48052202       0.00000000
Si       2.62714110       1.28541132      -2.58345737       0.00000000
Si      -3.43228671      -2.08894815       0.11027579       0.00000000
