10
Lattice="16.28999089631971 0.0 0.0 0.0 16.28999089631971 0.0 0.0 0.0 34.28971787722196" Properties=species:S:1:pos:R:3:initial_magmoms:R:1 pbc="T T T"
Si       2.23658931       0.04468347       0.61772961       0.00000000
Si      -0.43329608       0.79144965      -2.14537169       0.00000000
Si      -0.86052155      -1.69231923       1.36226267       0.00000000
Si      -1.02004952       1.96099020       0.83557231       0.00000000
Si      -3.03059390      -1.08598914       0.87270810       0.00000000
Si       2.48598921       2.24326332      -0.11936257       0.00000000
Si       1.69471875      -0.11326437       2.92073122       0.00000000
Si       1.21064511       2.51616969      -2.02847797       0.00000000
Si       0.39586166      -1.02887640      -3.36704644       0.00000000
Si      -2.72235452       0.94683996       2.07514631       0.00000000
