10
Lattice="16.28999089631971 0.0 0.0 0.0 16.28999089631971 0.0 0.0 0.0 34.28971787722196" Properties=species:S:1:pos:R:3:initial_magmoms:R:1 pbc="T T T"
Si       1.45055934      -1.71828549      -0.55261340       0.00000000
Si      -2.23658931      -0.04468347      -0.61772961       0.00000000
Si       0.24939990       2.19857985      -0.73709219       0.00000000
Si      -0.54187056      -0.15794784       2.30300161       0.00000000
Si      -1.30056102       3.12284187       0.69803618       0.00000000
Si      -0.67655628       2.15036145       2.68382343       0.00000000
Si       3.25712034      -1.03330728       0.79445892       0.00000000
Si       0.34539687      -3.51689697       0.69844765       0.00000000
Si      -3.09711086      -1.73700270       0.74453306       0.00000000
Si      -1.02594420       2.47148622      -2.64620759       0.00000000
