10
Lattice="16.28999089631971 0.0 0.0 0.0 16.28999089631971 0.0 0.0 0.0 34.28971787722196" Properties=species:S:1:pos:R:3:initial_magmoms:R:1 pbc="T T T"
Si      -1.38348431      -1.84298544      -0.41298559       0.00000000
Si       1.97622135      -0.03922632      -1.27598969       0.00000000
Si      -1.43869112       1.91394468       0.03634712       0.00000000
Si       1.13556287      -0.88298316       1.94045622       0.00000000
Si       2.11090707      -2.34753561      -1.65681151       0.00000000
Si       0.16090773      -3.47174109      -1.01850806       0.00000000
Si      -2.30616620      -1.28743128      -2.50239643       0.00000000
Si       1.35221661       0.93325410      -3.26177695       0.00000000
Si       0.11163211       3.67220583      -0.16942559       0.00000000
Si      -0.56442311      -2.08042848       3.04787757       0.00000000
