10
Lattice="16.28999089631971 0.0 0.0 0.0 16.28999089631971 0.0 0.0 0.0 34.28971787722196" Properties=species:S:1:pos:R:3:initial_magmoms:R:1 pbc="T T T"
Si      -1.35489016       1.35382961      -1.36270844       0.00000000
Si       1.35881437      -1.36323229      -1.36099395       0.00000000
Si       1.36788790       1.33801039       1.38468816       0.00000000
Si      -1.35925588      -1.35994171       1.38880293       0.00000000
Si      -2.71003897       2.71414561       0.00072008       0.00000000
Si      -2.71018558      -2.71479730       0.00216025       0.00000000
Si      -2.71178200      -0.00326905      -2.71917615       0.00000000
Si       0.00325115       2.71206049      -2.71907328       0.00000000
Si       2.72074471       2.71427593      -0.00205738       0.00000000
Si       2.71838266      -0.00335405      -2.71945047       0.00000000
