10
Lattice="16.28999089631971 0.0 0.0 0.0 16.28999089631971 0.0 0.0 0.0 34.28971787722196" Properties=species:S:1:pos:R:3:initial_magmoms:R:1 pbc="T T T"
Si       1.73483613      -1.56558303      -0.07255708       0.00000000
Si       0.04333140       1.70531443      -1.61490946       0.00000000
Si       0.33651882       1.14399783       2.05248079       0.00000000
Si      -1.76392681      -1.41157737      -0.78688089       0.00000000
Si      -2.03625489       1.25432643       2.31490015       0.00000000
Si       1.16346438       0.27191268      -3.21226257       0.00000000
Si       0.61335108      -3.42717165       0.80820910       0.00000000
Si       3.47296284      -0.66896514       1.12316034       0.00000000
Si       1.11052188       3.29076638       1.36939494       0.00000000
Si      -2.21612255       2.46614540      -1.71774438       0.00000000
