10
Lattice="16.28999089631971 0.0 0.0 0.0 16.28999089631971 0.0 0.0 0.0 34.40246978574605" Properties=species:S:1:pos:R:3:initial_magmoms:R:1 pbc="T T T"
Si       0.63951282      -1.61380143      -1.60501372       0.00000000
Si      -1.64178765       0.76075929      -1.52894982       0.00000000
Si       1.79077599       1.55786157      -0.14490328       0.00000000
Si      -0.61696746      -0.81537966       2.19085371       0.00000000
Si       1.49102370      -0.23368005      -3.29390071       0.00000000
Si      -1.43975092      -2.80447011      -1.94208931       0.00000000
Si      -0.47931696      -3.23299485       1.83984511       0.00000000
Si       3.36292389       0.92232351       1.47989187       0.00000000
Si      -3.04050311      -1.06609905      -1.99733971       0.00000000
Si      -3.17390192       2.09059344      -0.36662733       0.00000000
