10
Lattice="16.28999089631971 0.0 0.0 0.0 16.28999089631971 0.0 0.0 0.0 34.40246978574605" Properties=species:S:1:pos:R:3:initial_magmoms:R:1 pbc="T T T"
Si       1.29536451      -1.35703845      -1.39570898       0.00000000
Si      -0.91742185      -1.71859500       1.34055632       0.00000000
Si       1.74472416       1.05696036       1.37227542       0.00000000
Si      -1.84235665       1.23219189      -1.55444206       0.00000000
Si      -2.31142979      -0.32604435       2.75556854       0.00000000
Si       0.39581442       2.43211266       2.75001254       0.00000000
Si      -0.39156273      -2.12639886      -3.02298111       0.00000000
Si      -2.64263615      -1.03145022      -2.49590058       0.00000000
Si      -2.68420823       2.76625281       0.06409184       0.00000000
Si      -2.22010089      -3.21279525      -0.00553880       0.00000000
