10
Lattice="16.28999089631971 0.0 0.0 0.0 16.28999089631971 0.0 0.0 0.0 34.40246978574605" Properties=species:S:1:pos:R:3:initial_magmoms:R:1 pbc="T T T"
Si       1.35165460       1.35652206      -1.39560577       0.00000000
Si      -1.36243259      -1.36054442      -1.39017018       0.00000000
Si      -1.28467941       1.56834093       1.30743219       0.00000000
Si       1.40914202      -1.34961849       1.56039369       0.00000000
Si       2.68668526       2.71468452      -0.01795810       0.00000000
Si       2.69367368      -2.71267826      -0.01675401       0.00000000
Si      -2.72735229      -2.72522156       0.00075685       0.00000000
Si       2.70458797      -0.00136022      -2.75350642       0.00000000
Si      -0.00875262       2.71522209      -2.75360962       0.00000000
Si      -0.00779476      -2.71590368      -2.75412566       0.00000000
