10
Lattice="16.28999089631971 0.0 0.0 0.0 16.28999089631971 0.0 0.0 0.0 34.40246978574605" Properties=species:S:1:pos:R:3:initial_magmoms:R:1 pbc="T T T"
Si       1.35356868       1.36974465      -1.33543238       0.00000000
Si       1.35659862      -1.35544203       1.36075605       0.00000000
Si      -1.35668007       1.36058967       1.36037762       0.00000000
Si      -1.33894026      -1.38851073      -1.35159811       0.00000000
Si      -2.63562426      -0.04046436      -2.70413196       0.00000000
Si      -2.71502172       2.71132389       0.00220176       0.00000000
Si       2.71186146      -2.71740332       0.00261459       0.00000000
Si       2.71187775       2.71766070       0.00330264       0.00000000
Si      -2.71596654      -2.71457537       0.00340585       0.00000000
Si       2.71342530       0.00172674       2.71783103       0.00000000
