10
Lattice="16.28999089631971 0.0 0.0 0.0 16.28999089631971 0.0 0.0 0.0 34.40246978574605" Properties=species:S:1:pos:R:3:initial_magmoms:R:1 pbc="T T T"
Si       1.67169609       1.01524167       1.26300585       0.00000000
Si      -1.00949130      -1.89511344       1.16905609       0.00000000
Si      -1.92057471       1.55204604       0.11178194       0.00000000
Si       0.33386355       0.71767224      -2.46308099       0.00000000
Si      -2.05794828       0.96949935      -2.15373381       0.00000000
Si       0.18019998       2.15187642       2.63115500       0.00000000
Si       2.41377075       2.68297929      -0.26985351       0.00000000
Si      -2.51230896      -0.60637896       2.61498927       0.00000000
Si      -1.10908836       3.49598061       1.21432289       0.00000000
Si       2.90812338      -0.56884680       2.58066934       0.00000000
