10
Lattice="16.28999089631971 0.0 0.0 0.0 16.28999089631971 0.0 0.0 0.0 34.40246978574605" Properties=species:S:1:pos:R:3:initial_magmoms:R:1 pbc="T T T"
Si      -1.29668400       1.34804637      -1.35253386       0.00000000
Si      -1.37702628      -1.32606464       1.35500395       0.00000000
Si       1.33894026       1.38851073       1.35159811       0.00000000
Si       1.50281766      -1.28873448      -1.44593317       0.00000000
Si       0.59173425       2.15842500      -2.50320732       0.00000000
Si       2.51230896       0.60637896      -2.61498927       0.00000000
Si      -0.02041137      -2.68110785       2.71225095       0.00000000
Si      -2.73512358      -2.66265719      -0.02346938       0.00000000
Si       2.72723922      -2.67991640      -0.00661216       0.00000000
Si       2.69553888       0.03306870       2.71235416       0.00000000
