10
Lattice="16.28999089631971 0.0 0.0 0.0 16.28999089631971 0.0 0.0 0.0 34.40246978574605" Properties=species:S:1:pos:R:3:initial_magmoms:R:1 pbc="T T T"
Si      -1.35293337       1.35788227       1.35790064       0.00000000
Si      -1.35599589      -1.35598149      -1.35728140       0.00000000
Si       1.35935163       1.35827323      -1.35731580       0.00000000
Si       1.36073628      -1.35413298       1.36072165       0.00000000
Si      -2.71238274      -2.71454346      -0.00061924       0.00000000
Si      -2.71335851       0.00148402      -2.71514764       0.00000000
Si       0.00200367      -2.71392444      -2.71507884       0.00000000
Si      -2.71334059       2.71658230      -0.00010321       0.00000000
Si       0.00203625       2.71624021      -2.71494123       0.00000000
Si       2.71653669       0.00109306      -2.71494123       0.00000000
