10
Lattice="16.28999089631971 0.0 0.0 0.0 16.28999089631971 0.0 0.0 0.0 34.40246978574605" Properties=species:S:1:pos:R:3:initial_magmoms:R:1 pbc="T T T"
Si       1.99658385       0.34244675       1.03341637       0.00000000
Si      -1.57009536      -1.02124453       1.42106361       0.00000000
Si       0.22555134      -1.61368644      -1.72507841       0.00000000
Si      -1.00872567       2.02814572       0.89546239       0.00000000
Si      -3.16218222      -0.24842739      -0.13902046       0.00000000
Si      -2.65007349       2.02348679      -0.77784028       0.00000000
Si      -1.85570793       0.90056822       2.82244900       0.00000000
Si       3.41537769      -1.00203862      -0.26569042       0.00000000
Si       2.08384938       2.28370324      -1.86733270       0.00000000
Si       2.61651609       2.55077780       0.48947861       0.00000000
