10
Lattice="16.28999089631971 0.0 0.0 0.0 16.28999089631971 0.0 0.0 0.0 34.40246978574605" Properties=species:S:1:pos:R:3:initial_magmoms:R:1 pbc="T T T"
Si      -1.42757482      -0.81279281       1.67577964       0.00000000
Si       2.06777767       1.15858715       0.33036710       0.00000000
Si      -1.66687492       1.70690855      -0.41778383       0.00000000
Si       0.46379911      -2.06825726      -1.30977156       0.00000000
Si       3.04648087       0.21556557      -1.79728923       0.00000000
Si      -0.00925109      -2.44102133       2.67180050       0.00000000
Si       1.53805945      -1.07734254      -3.25911980       0.00000000
Si       1.25796919       3.50794724       0.58900501       0.00000000
Si      -2.67423223      -2.71374851       0.56423522       0.00000000
Si      -2.99107273       1.01642432      -2.26461264       0.00000000
