10
Lattice="16.28999089631971 0.0 0.0 0.0 16.28999089631971 0.0 0.0 0.0 34.40246978574605" Properties=species:S:1:pos:R:3:initial_magmoms:R:1 pbc="T T T"
Si      -1.00756908       1.93502394       0.86536021       0.00000000
Si      -0.61993224      -2.20833104       0.54393775       0.00000000
Si       2.10655764      -0.11098377       1.18509694       0.00000000
Si      -0.53266671      -0.26707455      -2.35681131       0.00000000
Si       1.29578805      -1.62795744       2.89902894       0.00000000
Si      -0.55923570       3.53851380      -0.74852936       0.00000000
Si      -3.62524176      -0.52263207       0.40598377       0.00000000
Si      -2.61651609      -2.55077780      -0.48947861       0.00000000
Si       3.61271475       0.58738482      -0.50626703       0.00000000
Si       0.29204712       2.42497827       2.79121154       0.00000000
