10
Lattice="16.28999089631971 0.0 0.0 0.0 16.28999089631971 0.0 0.0 0.0 34.40246978574605" Properties=species:S:1:pos:R:3:initial_magmoms:R:1 pbc="T T T"
Si      -1.64134782      -0.00465894      -1.67330266       0.00000000
Si       0.27412812       2.22351984       0.82459326       0.00000000
Si      -0.84698226      -1.12757751       1.92698662       0.00000000
Si       1.00872567      -2.02814572      -0.89546239       0.00000000
Si      -0.56136969      -3.04939026       0.52560123       0.00000000
Si      -2.87848372       0.08750988       1.52444309       0.00000000
Si      -2.15345655      -2.27657311      -1.03448284       0.00000000
Si      -2.96506345       1.48730958      -0.42435470       0.00000000
Si       3.00530952      -1.68569897       0.13795398       0.00000000
Si       2.61767268       2.45765601       0.45937644       0.00000000
