10
Lattice="16.28999089631971 0.0 0.0 0.0 16.28999089631971 0.0 0.0 0.0 34.40246978574605" Properties=species:S:1:pos:R:3:initial_magmoms:R:1 pbc="T T T"
Si      -1.07426034      -0.99091472       1.94934823       0.00000000
Si       1.28453166      -1.36305977      -1.57714771       0.00000000
Si       1.50842142       1.29290811       1.46183056       0.00000000
Si      -1.40914202       1.34961849      -1.56039369       0.00000000
Si       0.86944617      -2.19368687       2.78023715       0.00000000
Si      -1.53805945       1.07734254       3.25911980       0.00000000
Si       2.55643857       2.81406179      -0.00767176       0.00000000
Si       2.53006506      -2.86159316      -0.24670025       0.00000000
Si       2.65618224      -0.00587471      -2.95317846       0.00000000
Si      -2.69382143       2.91795941      -0.25296150       0.00000000
