10
Lattice="16.28999089631971 0.0 0.0 0.0 16.28999089631971 0.0 0.0 0.0 34.40246978574605" Properties=species:S:1:pos:R:3:initial_magmoms:R:1 pbc="T T T"
Si      -0.66354057      -2.17681641      -0.62540285       0.00000000
Si      -0.42326307       1.45088514      -1.85388133       0.00000000
Si       2.55937077       0.04039920      -0.11387224       0.00000000
Si      -1.81991880       0.34696071       1.86296358       0.00000000
Si      -2.72446992       1.43599608      -1.35937995       0.00000000
Si       1.04713749       3.22201539      -0.92848878       0.00000000
Si       0.43520364       3.26824641       1.75586864       0.00000000
Si       1.11474099      -3.63933261       0.01936860       0.00000000
Si      -0.63783495       1.69544691       3.35018460       0.00000000
Si       2.94963030       1.92153582      -1.61399277       0.00000000
