10
Lattice="16.28999089631971 0.0 0.0 0.0 16.28999089631971 0.0 0.0 0.0 34.40246978574605" Properties=species:S:1:pos:R:3:initial_magmoms:R:1 pbc="T T T"
Si      -1.35778779       1.35648459       1.35669656       0.00000000
Si      -1.35726651      -1.35637056      -1.35831347       0.00000000
Si       1.35599589       1.35819504      -1.35783184       0.00000000
Si       1.35778779      -1.35798327       1.35676536       0.00000000
Si       2.71425609      -0.00019548       2.71325550       0.00000000
Si      -2.71595514       0.00006516       2.71253305       0.00000000
Si       0.00216657       2.71551042      -2.71359953       0.00000000
Si       0.00027693      -2.71521720       2.71404676       0.00000000
Si       2.71464705       2.71505430      -0.00010321       0.00000000
Si      -2.71509665       2.71467963      -0.00017201       0.00000000
