10
Lattice="16.28999089631971 0.0 0.0 0.0 16.28999089631971 0.0 0.0 0.0 34.40246978574605" Properties=species:S:1:pos:R:3:initial_magmoms:R:1 pbc="T T T"
Si      -1.35382932       1.35731538      -1.35576769       0.00000000
Si      -1.35599589      -1.35819504       1.35783184       0.00000000
Si       1.35865116       1.35685926       1.35772863       0.00000000
Si       1.35918873      -1.36063854      -1.35999920       0.00000000
Si      -2.69742852      -0.00620649      -2.72084469       0.00000000
Si      -2.71246419       2.71349046      -0.00010321       0.00000000
Si      -2.71326240      -2.71456560      -0.00048163       0.00000000
Si      -2.71378368      -0.00171045       2.71452840       0.00000000
Si       0.00192222       2.71502172       2.71476921       0.00000000
Si       0.00179190      -2.71617831       2.71459720       0.00000000
