10
Lattice="16.28999089631971 0.0 0.0 0.0 16.28999089631971 0.0 0.0 0.0 34.40246978574605" Properties=species:S:1:pos:R:3:initial_magmoms:R:1 pbc="T T T"
Si       0.82098342      -0.26911080      -2.24775542       0.00000000
Si       2.19229191       0.21984984       1.06121358       0.00000000
Si      -0.78999984      -1.93965030       1.28617145       0.00000000
Si      -1.85686452       1.67446539      -0.15876749       0.00000000
Si       2.05043859       1.78639398      -2.46803456       0.00000000
Si       2.63311560      -2.02909869       1.72820904       0.00000000
Si       1.63163898      -2.56342698      -2.20083043       0.00000000
Si       1.73581353       1.35273789       3.04912700       0.00000000
Si       0.70811001      -2.05965873       3.07468805       0.00000000
Si      -3.59494236       0.36158913      -1.11587913       0.00000000
