10
Lattice="16.28999089631971 0.0 0.0 0.0 16.28999089631971 0.0 0.0 0.0 34.40246978574605" Properties=species:S:1:pos:R:3:initial_magmoms:R:1 pbc="T T T"
Si      -2.30120685      -0.01488906       0.49450138       0.00000000
Si       0.39032469      -0.00360009      -2.35522880       0.00000000
Si       0.42326307      -1.45088514       1.85388133       0.00000000
Si       1.47040056       1.77113025       0.92539255       0.00000000
Si       3.37289337       0.47065068       0.23988856       0.00000000
Si       2.75548608      -0.01650177      -2.05558312       0.00000000
Si      -2.43885735       2.40272613       0.84550997       0.00000000
Si      -3.04085430      -1.10824128      -1.45085617       0.00000000
Si      -1.18237707       1.60430436      -2.95035746       0.00000000
Si       2.98263384      -1.41048594       1.74000909       0.00000000
