10
Lattice="16.28999089631971 0.0 0.0 0.0 16.28999089631971 0.0 0.0 0.0 34.40246978574605" Properties=species:S:1:pos:R:3:initial_magmoms:R:1 pbc="T T T"
Si      -1.35672894       1.35816246       1.35704058       0.00000000
Si      -1.35865116      -1.35685926      -1.35772863       0.00000000
Si       1.35824391      -1.35817875       1.35710939       0.00000000
Si       1.35927018       1.35817875      -1.35800385       0.00000000
Si      -2.71248048       0.00045612      -2.71349632       0.00000000
Si      -0.00039096      -2.71524978       2.71335871       0.00000000
Si       0.00133578       2.71401174       2.71476921       0.00000000
Si      -2.71430496       2.71485882      -0.00024082       0.00000000
Si      -2.71464705      -2.71505430       0.00010321       0.00000000
Si       2.71500543      -2.71502172       0.00003440       0.00000000
