10
Lattice="16.28999089631971 0.0 0.0 0.0 16.28999089631971 0.0 0.0 0.0 34.40246978574605" Properties=species:S:1:pos:R:3:initial_magmoms:R:1 pbc="T T T"
Si       1.57214790      -0.63553806       1.62479515       0.00000000
Si      -1.79077599      -1.55786157       0.14490328       0.00000000
Si      -0.39960999       2.35462895       0.00653647       0.00000000
Si       1.22611572      -0.37481661      -2.04698250       0.00000000
Si      -0.29975229      -1.79154162      -3.14899743       0.00000000
Si      -1.15126317      -3.17166300      -1.46011044       0.00000000
Si      -3.43256364      -0.79710228      -1.38404654       0.00000000
Si       1.17048537       3.37587348      -1.41452714       0.00000000
Si       1.39603671       1.76218704      -3.13960555       0.00000000
Si      -1.99169685       3.12744609      -1.55354760       0.00000000
