10
Lattice="16.28999089631971 0.0 0.0 0.0 16.28999089631971 0.0 0.0 0.0 34.40246978574605" Properties=species:S:1:pos:R:3:initial_magmoms:R:1 pbc="T T T"
Si       1.35070164       1.34705268       1.38684690       0.00000000
Si      -1.36963062      -1.36642475       1.38853262       0.00000000
Si      -1.23642729       1.58408847      -1.31766349       0.00000000
Si       1.42667820      -1.37002810      -1.45980426       0.00000000
Si       2.68670970       2.71153566       0.00923707       0.00000000
Si      -2.69319312      -2.71744856       0.02770776       0.00000000
Si       2.69866656      -2.71543616       0.03149892       0.00000000
Si      -2.72792340       2.72072322       0.05048565       0.00000000
Si       2.70529659      -0.00522909       2.74650207       0.00000000
Si      -0.01125639       2.71054197       2.74574521       0.00000000
