10
Lattice="16.28999089631971 0.0 0.0 0.0 16.28999089631971 0.0 0.0 0.0 34.40246978574605" Properties=species:S:1:pos:R:3:initial_magmoms:R:1 pbc="T T T"
Si       1.35734796      -1.35627605       1.35576769       0.00000000
Si       1.35754344       1.35742452      -1.35800385       0.00000000
Si      -1.35816246      -1.35727327      -1.35783184       0.00000000
Si      -1.35692442       1.35711501       1.36337064       0.00000000
Si      -0.02081862      -2.70923455       2.71022808       0.00000000
Si      -0.00021177      -2.71421929      -2.71521645       0.00000000
Si       2.71503801       0.00004561      -2.71459720       0.00000000
Si      -2.71450044      -2.71552249      -0.00013761       0.00000000
Si       2.71513575       2.71500054      -0.00103207       0.00000000
Si      -2.71560816       0.00034209      -2.71501003       0.00000000
