10
Lattice="16.28999089631971 0.0 0.0 0.0 16.28999089631971 0.0 0.0 0.0 34.40246978574605" Properties=species:S:1:pos:R:3:initial_magmoms:R:1 pbc="T T T"
Si      -0.25389594       2.25268057       0.82163465       0.00000000
Si       0.74442042       0.03030429      -2.37435658       0.00000000
Si      -1.65680703      -1.08377926       1.73839217       0.00000000
Si       2.32396398      -1.18477726       0.80147479       0.00000000
Si       1.22315094       2.04667723       2.71043450       0.00000000
Si       0.70288092       2.30849011      -2.68745364       0.00000000
Si       3.08661291       0.62021080       2.09827661       0.00000000
Si       1.41731145      -2.44682872       2.53914451       0.00000000
Si      -1.51114185      -3.43294387      -1.28740994       0.00000000
Si      -0.34912728      -1.40946523       3.69338242       0.00000000
