10
Lattice="16.28999089631971 0.0 0.0 0.0 16.28999089631971 0.0 0.0 0.0 34.40246978574605" Properties=species:S:1:pos:R:3:initial_magmoms:R:1 pbc="T T T"
Si       1.15732305       1.25887491       1.59027711       0.00000000
Si      -0.76411503       1.98384507      -1.02127229       0.00000000
Si       1.70587251      -0.54120267      -1.67443795       0.00000000
Si      -1.56697582      -1.30633745       1.41543678       0.00000000
Si       3.04574130       2.06925354       0.43960364       0.00000000
Si       2.90836773       1.48670685      -1.82591210       0.00000000
Si      -2.50601939       1.45518570      -2.39417242       0.00000000
Si       2.45400705      -0.08917146       2.94281097       0.00000000
Si      -2.73978252       2.73228912       0.32559173       0.00000000
Si       0.65402721      -0.66065724      -3.78148719       0.00000000
