10
Lattice="16.28999089631971 0.0 0.0 0.0 16.28999089631971 0.0 0.0 0.0 34.40246978574605" Properties=species:S:1:pos:R:3:initial_magmoms:R:1 pbc="T T T"
Si      -1.09869534       1.39615074      -1.53631195       0.00000000
Si      -2.07989091      -0.49179510       1.18234474       0.00000000
Si       1.57925034      -1.31584104      -1.49344645       0.00000000
Si      -2.22718509       2.93423625      -0.18415652       0.00000000
Si      -2.70519885      -2.61855234       0.03822117       0.00000000
Si       2.74465323      -0.20194713       2.61393552       0.00000000
Si      -2.47606371       0.03466512      -2.89204524       0.00000000
Si       0.09052353       0.59544837       3.82197892       0.00000000
Si       0.23886027      -2.67678909      -2.88918983       0.00000000
Si       0.24614190       2.74207941      -2.89060033       0.00000000
