10
Lattice="16.28999089631971 0.0 0.0 0.0 16.28999089631971 0.0 0.0 0.0 34.40246978574605" Properties=species:S:1:pos:R:3:initial_magmoms:R:1 pbc="T T T"
Si      -1.54851111      -0.01915704      -1.78941106       0.00000000
Si       1.76093271       1.16807445      -1.08416004       0.00000000
Si      -1.34130231       0.84940947       1.83086606       0.00000000
Si       1.60959861      -1.82039121       0.32424346       0.00000000
Si       3.01925376       1.85826546       0.83838866       0.00000000
Si      -0.43210854      -1.90099413      -3.08235981       0.00000000
Si      -0.04452057       0.26518491       3.70803788       0.00000000
Si       2.20376007       0.69162453       2.95706594       0.00000000
Si       0.23899059      -3.72176001       0.47544240       0.00000000
Si      -1.43729928       2.05420158      -2.84849169       0.00000000
