10
Lattice="16.28999089631971 0.0 0.0 0.0 16.28999089631971 0.0 0.0 0.0 34.40246978574605" Properties=species:S:1:pos:R:3:initial_magmoms:R:1 pbc="T T T"
Si      -1.29961620      -0.48995433      -1.92585133       0.00000000
Si       2.24168319       0.89272458      -0.23944132       0.00000000
Si      -1.06530084       1.75190805       1.36409309       0.00000000
Si      -0.11811879      -2.17965087       1.18798675       0.00000000
Si       3.03073821      -1.26925164       0.00973590       0.00000000
Si      -2.50993062      -1.92782376       1.49733393       0.00000000
Si       1.81451052      -2.53596204      -1.60611460       0.00000000
Si      -0.67504131       3.63304467      -0.13602744       0.00000000
Si      -0.29204712      -2.42497827      -2.79121154       0.00000000
Si       0.11332953       1.53762939       3.45167053       0.00000000
