10
Lattice="16.28999089631971 0.0 0.0 0.0 16.28999089631971 0.0 0.0 0.0 34.40246978574605" Properties=species:S:1:pos:R:3:initial_magmoms:R:1 pbc="T T T"
Si      -1.37165058       1.25892378       1.47915566       0.00000000
Si       1.34193762      -1.44550944       1.48218652       0.00000000
Si      -0.98311779      -1.88538831      -1.30878907       0.00000000
Si       1.54624680       1.45052676      -1.34673501       0.00000000
Si      -2.68201818       2.66385483       0.00241849       0.00000000
Si       2.61426807      -2.84581413       0.05268397       0.00000000
Si      -0.00768888       2.61006525       2.85698910       0.00000000
Si      -2.65751802      -2.82436020       0.10493103       0.00000000
Si       2.70480789      -0.10845882       2.86025734       0.00000000
Si      -2.72308527      -0.10955025       2.85722992       0.00000000
