10
Lattice="16.28999089631971 0.0 0.0 0.0 16.28999089631971 0.0 0.0 0.0 34.40246978574605" Properties=species:S:1:pos:R:3:initial_magmoms:R:1 pbc="T T T"
Si      -0.33135489      -0.91546542       2.11527144       0.00000000
Si       1.02429891       1.96002909       0.85576191       0.00000000
Si      -2.10092130       1.01815758      -0.50495973       0.00000000
Si       1.78484643      -1.25708301      -1.01129557       0.00000000
Si       1.97304480      -0.90600093       2.59556459       0.00000000
Si      -1.44917469       0.99510723       3.13743819       0.00000000
Si      -1.90415439       0.97391394      -2.97079254       0.00000000
Si      -0.74213982       2.99739258       2.00999982       0.00000000
Si       3.10085037      -1.99536210       0.88613931       0.00000000
Si       2.42559729      -0.05962140      -2.97044851       0.00000000
