10
Lattice="16.28999089631971 0.0 0.0 0.0 16.28999089631971 0.0 0.0 0.0 34.40246978574605" Properties=species:S:1:pos:R:3:initial_magmoms:R:1 pbc="T T T"
Si       0.04758309       0.92844855      -2.11148717       0.00000000
Si       1.83107745      -1.40802615      -0.13200235       0.00000000
Si       1.06846110       1.77104880       1.08601777       0.00000000
Si      -2.11496328      -0.64756008       0.93746783       0.00000000
Si      -2.25681660       0.91898406      -2.59178031       0.00000000
Si      -0.14646339       3.57055623       0.12171601       0.00000000
Si      -1.67413959      -2.89650861       1.60446328       0.00000000
Si       3.41593155       1.61160228       0.72503246       0.00000000
Si       0.93504600       1.58325768       3.37970052       0.00000000
Si       0.86944617      -3.58862184      -1.19837630       0.00000000
