10
Lattice="16.28999089631971 0.0 0.0 0.0 16.28999089631971 0.0 0.0 0.0 34.40246978574605" Properties=species:S:1:pos:R:3:initial_magmoms:R:1 pbc="T T T"
Si      -1.46886930      -1.38003993       1.13380283       0.00000000
Si       0.45647838      -1.13288805      -1.98791343       0.00000000
Si      -0.73396224       2.22000120      -0.29059782       0.00000000
Si       1.93236867      -0.37968732       1.30103333       0.00000000
Si      -1.02770352      -3.41239662       0.02556105       0.00000000
Si      -0.85146201      -0.89288748       3.42927451       0.00000000
Si       3.50648766       1.09792971       0.45431927       0.00000000
Si       0.89730207      -3.38183658      -1.32091797       0.00000000
Si      -1.73581353      -1.35273789      -3.04912700       0.00000000
Si       0.05839965       2.92307760      -2.38674148       0.00000000
