10
Lattice="16.28999089631971 0.0 0.0 0.0 16.28999089631971 0.0 0.0 0.0 34.40246978574605" Properties=species:S:1:pos:R:3:initial_magmoms:R:1 pbc="T T T"
Si       1.15347698      -1.50084657       1.33987030       0.00000000
Si      -1.32970546      -1.41711597      -1.27941653       0.00000000
Si      -1.55842211       1.21026555       1.34848812       0.00000000
Si       1.38378500       1.32359508      -1.58732538       0.00000000
Si      -0.58702155       1.88033841      -2.77132144       0.00000000
Si       0.64596203      -2.16556002      -2.62628055       0.00000000
Si      -2.35797003       0.25273935      -2.55386331       0.00000000
Si       2.48800265      -0.13874193       2.69160258       0.00000000
Si       2.56586885       2.67208128      -0.10010436       0.00000000
Si      -0.23264889       2.58189984       2.69232503       0.00000000
