10
Lattice="16.28999089631971 0.0 0.0 0.0 16.28999089631971 0.0 0.0 0.0 34.40246978574605" Properties=species:S:1:pos:R:3:initial_magmoms:R:1 pbc="T T T"
Si      -1.30551532       1.37813400      -1.29597272       0.00000000
Si       1.32577322       1.37163429       1.34383691       0.00000000
Si      -1.38290911      -1.34475579       1.34091269       0.00000000
Si       1.55842211      -1.21026555      -1.34848812       0.00000000
Si      -2.60966014       0.02614545      -2.64977913       0.00000000
Si       0.22871665      -2.62738152      -2.62790465       0.00000000
Si       0.07146733       2.53358370      -2.78970613       0.00000000
Si       2.68770844       0.01440036       2.70046466       0.00000000
Si      -0.02606562      -2.70172908       2.70163434       0.00000000
Si       2.71189909      -2.71111212      -0.00861782       0.00000000
