10
Lattice="16.28999089631971 0.0 0.0 0.0 16.28999089631971 0.0 0.0 0.0 34.40246978574605" Properties=species:S:1:pos:R:3:initial_magmoms:R:1 pbc="T T T"
Si      -0.73498851       0.11886813      -2.26232354       0.00000000
Si      -1.92485898      -0.87386728       1.16749938       0.00000000
Si       0.80734869       1.91010024       1.26830899       0.00000000
Si       1.70287515      -1.86988837      -0.04776652       0.00000000
Si       2.08616111       0.49728483       2.64696810       0.00000000
Si       0.29150955      -1.86603090      -2.90499644       0.00000000
Si      -0.65287062      -2.21927534       2.65880256       0.00000000
Si       3.49703850      -0.75853733       1.13424937       0.00000000
Si      -2.96468226      -0.99088323      -2.24701443       0.00000000
Si       0.69862923      -3.56870636       1.29823228       0.00000000
