10
Lattice="16.28999089631971 0.0 0.0 0.0 16.28999089631971 0.0 0.0 0.0 34.40246978574605" Properties=species:S:1:pos:R:3:initial_magmoms:R:1 pbc="T T T"
Si      -1.36109466      -1.35028854      -1.35369666       0.00000000
Si       1.35884410      -1.35502863       1.36158171       0.00000000
Si      -1.35446463       1.35991852       1.36130649       0.00000000
Si       1.37793707       1.36627162      -1.36553112       0.00000000
Si      -0.00959481      -2.69971956      -2.71426694       0.00000000
Si      -2.70905958       2.71220029       0.00165132       0.00000000
Si      -2.71378368      -2.70806004       0.00340585       0.00000000
Si       2.71639890      -2.71047096      -0.00175453       0.00000000
Si       0.00159642      -2.71236060       2.71807185       0.00000000
Si      -2.71220355       0.00187172       2.71879430       0.00000000
