10
Lattice="16.28999089631971 0.0 0.0 0.0 16.28999089631971 0.0 0.0 0.0 34.40246978574605" Properties=species:S:1:pos:R:3:initial_magmoms:R:1 pbc="T T T"
Si      -1.35459495       1.35228177      -1.35965517       0.00000000
Si       1.35698958       1.35698958       1.35731580       0.00000000
Si      -1.35773892      -1.35804680       1.35748781       0.00000000
Si       1.35446463      -1.35991852      -1.36130649       0.00000000
Si      -0.00663003      -2.71020707      -2.71500315       0.00000000
Si      -2.71388142      -2.71385339      -0.00010321       0.00000000
Si       2.71330873      -2.71494715       0.00027522       0.00000000
Si      -0.00066789       2.71472850       2.71397796       0.00000000
Si      -0.00216657      -2.71476407       2.71418437       0.00000000
Si       2.71477816      -0.00008145       2.71418437       0.00000000
