10
Lattice="16.28999089631971 0.0 0.0 0.0 16.28999089631971 0.0 0.0 0.0 34.40246978574605" Properties=species:S:1:pos:R:3:initial_magmoms:R:1 pbc="T T T"
Si       1.35721764      -1.35503315      -1.35556127       0.00000000
Si      -1.35601218       1.35816246      -1.35728140       0.00000000
Si       1.34149779       1.38676770       1.34723587       0.00000000
Si      -1.34508159      -1.37652455       1.36681089       0.00000000
Si      -2.62225017       0.12450447       2.61599967       0.00000000
Si      -2.71379997      -2.71311413      -0.00048163       0.00000000
Si      -0.00053757      -2.71350974      -2.71414997       0.00000000
Si      -2.71360449       0.00058644      -2.71425318       0.00000000
Si       2.71401174       2.71565703       0.00041283       0.00000000
Si       0.00096111       2.71598283      -2.71435638       0.00000000
