10
Lattice="16.28999089631971 0.0 0.0 0.0 16.28999089631971 0.0 0.0 0.0 34.40246978574605" Properties=species:S:1:pos:R:3:initial_magmoms:R:1 pbc="T T T"
Si       1.42757482       0.81279281      -1.67577964       0.00000000
Si       1.41832373      -1.62822852       0.99602086       0.00000000
Si      -0.44365815       1.23054334       1.99782134       0.00000000
Si      -1.24665741      -1.90095570      -1.11154442       0.00000000
Si      -0.23930010       2.51970136      -2.09356347       0.00000000
Si       0.49424416      -3.49112034      -0.01155924       0.00000000
Si      -2.36376045      -0.04140592       2.74143114       0.00000000
Si       1.89137393      -1.25546445      -2.98555120       0.00000000
Si       1.40617302       0.75696861       3.40694729       0.00000000
Si      -1.61723862      -3.51205299       0.97837239       0.00000000
