10
Lattice="16.28999089631971 0.0 0.0 0.0 16.28999089631971 0.0 0.0 0.0 34.40246978574605" Properties=species:S:1:pos:R:3:initial_magmoms:R:1 pbc="T T T"
Si       0.56927034      -0.43434679      -2.20939665       0.00000000
Si      -2.01383496      -0.82699836       0.82201307       0.00000000
Si       0.16273710       2.27649818       0.53619719       0.00000000
Si       1.68911010      -1.17431745       1.17336569       0.00000000
Si       0.79555473      -2.81480190      -1.93493359       0.00000000
Si      -1.74114036       2.41072778       1.94638962       0.00000000
Si       2.42426151       2.19661202       1.45904396       0.00000000
Si       3.51805097       0.25096048       0.65117031       0.00000000
Si      -2.14672878       0.27095157       2.91361560       0.00000000
Si       1.99260909      -3.26251626       0.07186680       0.00000000
