10
Lattice="16.28999089631971 0.0 0.0 0.0 16.28999089631971 0.0 0.0 0.0 34.40246978574605" Properties=species:S:1:pos:R:3:initial_magmoms:R:1 pbc="T T T"
Si       1.27881242      -1.41281541       1.37865911       0.00000000
Si       1.51688312       1.36998900      -1.22390467       0.00000000
Si      -1.47217617       1.29759624       1.36823171       0.00000000
Si      -0.80734869      -1.91010024      -1.26830899       0.00000000
Si       2.68968981      -2.66863757      -0.13405962       0.00000000
Si       2.61700546      -0.06401970       2.74759607       0.00000000
Si      -0.09474264       2.65261473       2.74491267       0.00000000
Si      -2.73220767      -2.78396752      -0.10080961       0.00000000
Si      -0.09912465      -2.77908703       2.74419022       0.00000000
Si      -2.90431152       2.62943406      -0.05959887       0.00000000
