10
Lattice="16.28999089631971 0.0 0.0 0.0 16.28999089631971 0.0 0.0 0.0 34.40246978574605" Properties=species:S:1:pos:R:3:initial_magmoms:R:1 pbc="T T T"
Si      -1.33600806      -1.36448298       1.37760983       0.00000000
Si       1.37743353       1.35501849       1.37668096       0.00000000
Si       1.47217617      -1.29759624      -1.36823171       0.00000000
Si      -1.43213535       1.33183782      -1.42783058       0.00000000
Si       0.15068250       2.72591973      -2.61401086       0.00000000
Si      -2.68670970      -2.71153566      -0.00923707       0.00000000
Si      -2.69796609      -0.00099369       2.73650815       0.00000000
Si      -2.70446580       2.73214251       0.00167196       0.00000000
Si       0.01984122       2.71588509       2.73698978       0.00000000
Si       0.01858689      -2.71676475       2.73726500       0.00000000
