10
Lattice="16.28999089631971 0.0 0.0 0.0 16.28999089631971 0.0 0.0 0.0 34.40246978574605" Properties=species:S:1:pos:R:3:initial_magmoms:R:1 pbc="T T T"
Si      -1.35697329      -1.35782037       1.35707498       0.00000000
Si       1.35765747      -1.35773892      -1.35666215       0.00000000
Si      -1.35757602       1.35760860      -1.35728140       0.00000000
Si       1.36104579       1.35767376       1.35920794       0.00000000
Si       2.71305063      -0.00032580       2.71476921       0.00000000
Si       0.00066789      -2.71472850      -2.71397796       0.00000000
Si      -2.71456560      -2.71539639       0.00010321       0.00000000
Si       2.71635802       0.00008145      -2.71384035       0.00000000
Si       2.71544605      -2.71480995       0.00020641       0.00000000
Si      -0.00096111      -2.71598283       2.71435638       0.00000000
