10
Lattice="16.28999089631971 0.0 0.0 0.0 16.28999089631971 0.0 0.0 0.0 34.40246978574605" Properties=species:S:1:pos:R:3:initial_magmoms:R:1 pbc="T T T"
Si      -1.00203048      -1.79220951       1.19651857       0.00000000
Si       1.26886068      -1.39582494      -1.46361949       0.00000000
Si      -1.44889776       1.29727044      -1.41177494       0.00000000
Si       1.85632695       0.93452472       1.49643947       0.00000000
Si      -0.28349487       2.41116435       2.69560703       0.00000000
Si       0.88948287      -3.39467310       1.14123377       0.00000000
Si       2.72479362      -2.57048055      -0.10623489       0.00000000
Si       2.66194859       2.67331932      -0.01142163       0.00000000
Si      -2.69488728      -2.65808817      -0.19485570       0.00000000
Si       2.64137463      -0.06693561      -2.81044253       0.00000000
