10
Lattice="16.28999089631971 0.0 0.0 0.0 16.28999089631971 0.0 0.0 0.0 34.40246978574605" Properties=species:S:1:pos:R:3:initial_magmoms:R:1 pbc="T T T"
Si       1.30414482       1.35198855       1.35380640       0.00000000
Si      -0.77452434       1.86935895      -1.20588813       0.00000000
Si       1.81011222      -0.98367165      -1.25257230       0.00000000
Si      -1.58281785      -1.39408191       1.18618028       0.00000000
Si       2.68112746       2.50743825      -0.13992700       0.00000000
Si      -1.70059455       0.87232950      -3.16166963       0.00000000
Si       2.60966014      -0.02614545       2.64977913       0.00000000
Si      -0.15068250      -2.72591973       2.61401086       0.00000000
Si      -0.12409722       2.71028133       2.63464547       0.00000000
Si      -2.85514830       0.00622278       2.61568282       0.00000000
