10
Lattice="16.28999089631971 0.0 0.0 0.0 16.28999089631971 0.0 0.0 0.0 34.40246978574605" Properties=species:S:1:pos:R:3:initial_magmoms:R:1 pbc="T T T"
Si      -1.83109374       1.17095778       0.85827330       0.00000000
Si       0.51737040       0.39680811      -2.24961316       0.00000000
Si       1.16411598      -1.08598914       1.74788726       0.00000000
Si      -0.13014081      -2.92337082       0.53702285       0.00000000
Si       3.11049146       0.18018369       0.70150115       0.00000000
Si      -2.47184460      -0.02650383       2.81742624       0.00000000
Si      -0.96506847       3.42751374       1.17821644       0.00000000
Si       2.26896894       2.24244882      -2.17120989       0.00000000
Si      -2.78427051      -2.12597532       1.74506626       0.00000000
Si       2.87353289       2.67118533       0.23035907       0.00000000
