10
Lattice="16.28999089631971 0.0 0.0 0.0 16.28999089631971 0.0 0.0 0.0 34.40246978574605" Properties=species:S:1:pos:R:3:initial_magmoms:R:1 pbc="T T T"
Si      -0.86843619      -0.08508267       2.18903038       0.00000000
Si      -1.45464813       0.80470971      -1.71541131       0.00000000
Si      -0.68455467      -2.31796926      -0.57015245       0.00000000
Si       2.05735274       1.38857589       0.30064335       0.00000000
Si       0.92393200      -2.64829788      -2.32278725       0.00000000
Si       3.56236955      -0.20331549       1.34730468       0.00000000
Si       2.76091784      -1.05077016      -2.44126943       0.00000000
Si       0.65315148      -1.39577607       3.52560148       0.00000000
Si      -3.65003514       0.14159268      -1.23398288       0.00000000
Si      -3.14048394      -2.11947561      -0.73012402       0.00000000
