10
Lattice="16.28999089631971 0.0 0.0 0.0 16.28999089631971 0.0 0.0 0.0 34.40246978574605" Properties=species:S:1:pos:R:3:initial_magmoms:R:1 pbc="T T T"
Si      -0.54105606       1.99919025       1.12293164       0.00000000
Si       0.86843619       0.08508267      -2.18903038       0.00000000
Si      -2.12591016      -1.02043818       0.26589684       0.00000000
Si       1.52158767      -1.31069340       1.33657110       0.00000000
Si       0.18388152      -2.23288659      -2.75918283       0.00000000
Si       0.67481325       1.66138452       3.16998295       0.00000000
Si       0.33282099      -3.33379737       1.69962057       0.00000000
Si       2.92578893       1.47365856      -1.88838702       0.00000000
Si      -1.96918407      -2.98019034       1.40933236       0.00000000
Si       0.04015485       3.85344837      -0.19213790       0.00000000
