10
Lattice="16.28999089631971 0.0 0.0 0.0 16.28999089631971 0.0 0.0 0.0 34.40246978574605" Properties=species:S:1:pos:R:3:initial_magmoms:R:1 pbc="T T T"
Si      -1.35149985       1.34943102       1.36057028       0.00000000
Si       1.37702436      -1.39347918       1.34547790       0.00000000
Si      -1.68687837      -0.92390364      -1.41260202       0.00000000
Si       1.00424592       1.69881798      -1.34599880       0.00000000
Si       1.84609750       0.16475706      -2.96453270       0.00000000
Si      -2.61750978      -2.54648538       0.06143596       0.00000000
Si      -2.62348821       2.69483908      -0.13073290       0.00000000
Si       0.00959481       2.69971956       2.71426694       0.00000000
Si      -2.70418887      -0.00834048       2.71767278       0.00000000
Si       2.72599371      -0.01075140       2.71251241       0.00000000
