10
Lattice="16.28999089631971 0.0 0.0 0.0 16.28999089631971 0.0 0.0 0.0 34.40246978574605" Properties=species:S:1:pos:R:3:initial_magmoms:R:1 pbc="T T T"
Si       1.02900672       0.13380606       2.04120288       0.00000000
Si       1.44638910      -1.61792280      -0.82393961       0.00000000
Si      -1.61192319       1.60456500      -0.80199082       0.00000000
Si       2.41642602       0.10756287      -2.15996027       0.00000000
Si      -0.29853054      -2.56762980      -2.06105312       0.00000000
Si      -3.07417454      -0.12768102       1.48343533       0.00000000
Si      -2.96381009       0.13890483      -2.04770495       0.00000000
Si      -0.19279215       2.95907850      -2.08076574       0.00000000
Si      -0.52400043       0.84297492       3.62987542       0.00000000
Si       1.43614269      -1.95613578       3.02009130       0.00000000
