10
Lattice="16.28999089631971 0.0 0.0 0.0 16.28999089631971 0.0 0.0 0.0 34.40246978574605" Properties=species:S:1:pos:R:3:initial_magmoms:R:1 pbc="T T T"
Si      -1.36272366      -1.34050410      -1.39825476       0.00000000
Si       1.36491970       1.36467714      -1.39092703       0.00000000
Si      -1.27425267       1.46556701       1.49557940       0.00000000
Si       0.83349414      -1.84896387       1.40028451       0.00000000
Si       2.70225103      -2.69475696      -0.01733885       0.00000000
Si      -2.69983944       2.70492585      -0.03113425       0.00000000
Si      -2.70619254      -2.70229923      -0.01180005       0.00000000
Si       2.72735229       2.72522156      -0.00075685       0.00000000
Si       0.00513135      -2.70350469      -2.75247434       0.00000000
Si      -2.71145421       0.00835677      -2.75632742       0.00000000
