10
Lattice="16.28999089631971 0.0 0.0 0.0 16.28999089631971 0.0 0.0 0.0 34.40246978574605" Properties=species:S:1:pos:R:3:initial_magmoms:R:1 pbc="T T T"
Si      -0.68680269       1.02227895      -2.05682161       0.00000000
Si      -0.86602527      -2.25655596      -0.31994315       0.00000000
Si       2.32474590       0.40309605       0.63328102       0.00000000
Si      -1.36067112       1.02514599       1.76859756       0.00000000
Si       1.95416469      -1.20800124       2.72319782       0.00000000
Si       0.96506847      -3.42751374      -1.17821644       0.00000000
Si      -1.74649977      -0.63631998      -3.39690177       0.00000000
Si      -2.98494702      -1.86605208      -1.67116971       0.00000000
Si      -2.94021468       2.24022753      -1.40723381       0.00000000
Si       3.83860136      -0.75632841      -0.94785738       0.00000000
