10
Lattice="16.28999089631971 0.0 0.0 0.0 16.28999089631971 0.0 0.0 0.0 34.40246978574605" Properties=species:S:1:pos:R:3:initial_magmoms:R:1 pbc="T T T"
Si      -1.92257742      -1.13907825       0.67077973       0.00000000
Si       1.40156716      -0.16231356       1.87641496       0.00000000
Si      -0.73484516       2.23862067      -0.29503575       0.00000000
Si       1.13890721      -0.44439120      -2.08482524       0.00000000
Si       3.06228379       1.03703769      -1.02330204       0.00000000
Si      -2.48376792       0.30871179       2.44343678       0.00000000
Si      -3.10695816      -0.98062542      -1.32886494       0.00000000
Si       1.74474859      -2.53837296       1.86767673       0.00000000
Si       3.20951281       1.23632955       1.37995264       0.00000000
Si      -2.34333183       2.56894929       1.45759906       0.00000000
