10
Lattice="16.28999089631971 0.0 0.0 0.0 16.28999089631971 0.0 0.0 0.0 34.40246978574605" Properties=species:S:1:pos:R:3:initial_magmoms:R:1 pbc="T T T"
Si      -1.13890721       0.44439120       2.08482524       0.00000000
Si       0.80980848      -2.34936009      -0.25863791       0.00000000
Si       1.92337659       1.48142889       1.06152320       0.00000000
Si      -1.53892282       0.00143352      -2.40862146       0.00000000
Si      -2.92484411      -1.80103869      -1.00678884       0.00000000
Si      -1.87375236       2.68301187       1.78978949       0.00000000
Si       3.74515245       0.22584456       0.34942608       0.00000000
Si      -1.25796919      -3.50794724      -0.58900501       0.00000000
Si       1.93362300       1.81964187      -2.78250771       0.00000000
Si       1.51624062       3.57137073       0.08263478       0.00000000
