10
Lattice="16.28999089631971 0.0 0.0 0.0 16.28999089631971 0.0 0.0 0.0 34.40246978574605" Properties=species:S:1:pos:R:3:initial_magmoms:R:1 pbc="T T T"
Si       1.35599589       1.35598149       1.35728140       0.00000000
Si      -1.35638685      -1.35856197       1.35666215       0.00000000
Si      -1.35736262       1.35746551      -1.35786624       0.00000000
Si       1.35799956      -1.35794295      -1.35779744       0.00000000
Si      -0.00667890      -2.70421371       2.71635173       0.00000000
Si      -2.71429507       2.71474342      -0.00055044       0.00000000
Si       0.00306252       2.71386376       2.71518204       0.00000000
Si       2.71477737       0.00141396      -2.71466601       0.00000000
Si       2.71534752       2.71425472      -0.00003440       0.00000000
Si      -2.71463888      -2.71506285      -0.00041283       0.00000000
