10
Lattice="16.28999089631971 0.0 0.0 0.0 16.28999089631971 0.0 0.0 0.0 34.40246978574605" Properties=species:S:1:pos:R:3:initial_magmoms:R:1 pbc="T T T"
Si      -1.02900672      -0.13380606      -2.04120288       0.00000000
Si      -1.55300715       0.70916886       1.58867254       0.00000000
Si       0.40713597      -2.08994184       0.97888842       0.00000000
Si       2.18660670       1.07709480       0.19110583       0.00000000
Si       0.41738238      -1.75172886      -2.86514249       0.00000000
Si      -0.04531878       0.41739867       3.43907922       0.00000000
Si       1.94080689       1.43049006       2.67713289       0.00000000
Si      -2.27193372       2.90059740       0.65688113       0.00000000
Si       1.96792974       2.88412821      -1.48611872       0.00000000
Si      -1.51624062      -3.57137073      -0.08263478       0.00000000
