10
Lattice="16.28999089631971 0.0 0.0 0.0 16.28999089631971 0.0 0.0 0.0 34.40246978574605" Properties=species:S:1:pos:R:3:initial_magmoms:R:1 pbc="T T T"
Si       1.98612567       1.01309139      -0.76194633       0.00000000
Si      -0.70623666       1.13922486       1.93816743       0.00000000
Si       0.59968377      -2.30804865      -0.05693612       0.00000000
Si      -1.50768837       0.29177019      -1.85040668       0.00000000
Si       0.04531878      -0.41739867      -3.43907922       0.00000000
Si       0.45245475      -2.50734051      -2.46019079       0.00000000
Si      -2.21125347       2.73111624       0.89150610       0.00000000
Si       1.45837854       3.29696568      -0.78527121       0.00000000
Si      -1.47812202      -0.65559105       3.33707584       0.00000000
Si       3.70968912       0.50852493       0.80629113       0.00000000
