10
Lattice="16.28999089631971 0.0 0.0 0.0 16.28999089631971 0.0 0.0 0.0 34.40246978574605" Properties=species:S:1:pos:R:3:initial_magmoms:R:1 pbc="T T T"
Si       1.50501681      -1.59189138       1.04666133       0.00000000
Si      -0.62563700       1.97092710       1.31682407       0.00000000
Si      -2.05735274      -1.38857589      -0.30064335       0.00000000
Si       1.32701598       0.86266953      -2.02431126       0.00000000
Si       2.21125347      -2.73111624      -0.89150610       0.00000000
Si      -0.01536147      -0.24791751      -3.67370419       0.00000000
Si       0.14371038       3.70781577      -0.08050182       0.00000000
Si       0.70356510      -2.43934605      -2.74191278       0.00000000
Si      -2.92578893      -1.47365856       1.88838702       0.00000000
Si       3.24309465      -0.27901512       2.00377297       0.00000000
