10
Lattice="16.28999089631971 0.0 0.0 0.0 16.28999089631971 0.0 0.0 0.0 34.40246978574605" Properties=species:S:1:pos:R:3:initial_magmoms:R:1 pbc="T T T"
Si       0.73964745       1.09335222       1.94535755       0.00000000
Si      -2.12868665      -0.96580152       0.33810766       0.00000000
Si      -0.22078651       1.52187696      -1.83657688       0.00000000
Si       1.61756442      -1.64594160      -0.80856170       0.00000000
Si       3.04085430       1.10824128       1.45085617       0.00000000
Si      -2.02933394      -2.68537392      -1.25514041       0.00000000
Si       1.85847723       2.71254564      -1.49950129       0.00000000
Si       0.20643665      -3.51445347      -0.98281031       0.00000000
Si       2.62003473      -0.44370702      -2.57912020       0.00000000
Si       3.43117899       1.10464119      -0.90437263       0.00000000
