10
Lattice="10.86 0.0 0.0 0.0 10.86 0.0 0.0 0.0 10.86" Properties=species:S:1:pos:R:3:initial_magmoms:R:1 pbc="T T T"
Si       1.23142626      -1.33648590      -1.22952576       0.00000000
Si      -1.48357374       1.37851410      -1.22952576       0.00000000
Si      -1.48357374      -1.33648590       1.48547424       0.00000000
Si       1.50378420       1.53964392       1.50652092       0.00000000
Si      -0.12607374      -2.69398590      -2.58702576       0.00000000
Si       2.58892626      -2.69398590       0.12797424       0.00000000
Si       2.52681792      -0.16540866       2.81378256       0.00000000
Si       2.85430122       0.01306458      -2.48824320       0.00000000
Si      -2.84107374       0.02101410      -2.58702576       0.00000000
Si      -2.84107374      -2.69398590       0.12797424       0.00000000
