10
Lattice="16.28999089631971 0.0 0.0 0.0 16.28999089631971 0.0 0.0 0.0 34.64500226677339" Properties=species:S:1:pos:R:3:initial_magmoms:R:1 pbc="T T T"
Si       1.58855193      -1.33749045      -1.05753929       0.00000000
Si      -1.63070882       0.54084429      -1.61071635       0.00000000
Si       0.84434328       1.95833493       1.02656664       0.00000000
Si      -0.57440169      -1.38536676       1.83466177       0.00000000
Si       1.05888258      -0.47113938       3.32994090       0.00000000
Si      -0.49594905       3.49101216      -0.05920834       0.00000000
Si      -2.73628736      -1.57928292      -1.73772499       0.00000000
Si      -2.50441941       2.56603338      -0.78252710       0.00000000
Si       2.55897981      -2.62945035       0.62742134       0.00000000
Si       3.08456037       0.05141124      -2.14459613       0.00000000
