10
Lattice="16.28999089631971 0.0 0.0 0.0 16.28999089631971 0.0 0.0 0.0 34.64500226677339" Properties=species:S:1:pos:R:3:initial_magmoms:R:1 pbc="T T T"
Si      -1.35654975      -1.34721069       1.37357464       0.00000000
Si      -1.33499808       1.36611198      -1.38221511       0.00000000
Si       1.35466011       1.36964691       1.37419825       0.00000000
Si       1.39804038      -1.26809342      -1.53269229       0.00000000
Si       0.59738688       1.94168655      -2.69956292       0.00000000
Si       2.56867236       0.47671056      -2.77040097       0.00000000
Si       2.71831230      -2.69324007      -0.02037820       0.00000000
Si      -2.71342530      -2.71148254       0.01210151       0.00000000
Si      -0.00048870      -2.70382139       2.73238703       0.00000000
Si      -0.21260079      -2.47940479      -2.93666243       0.00000000
