10
Lattice="16.28999089631971 0.0 0.0 0.0 16.28999089631971 0.0 0.0 0.0 34.64500226677339" Properties=species:S:1:pos:R:3:initial_magmoms:R:1 pbc="T T T"
Si       0.93582792       1.79836713      -1.24192009       0.00000000
Si      -1.77012027      -0.97810047      -1.25844577       0.00000000
Si       1.86608466      -1.68166557       0.16089148       0.00000000
Si      -0.74533266      -0.55755783       2.73373472       0.00000000
Si       1.58886144      -0.60738894       2.42567119       0.00000000
Si      -2.27789586       0.93356361       1.72102609       0.00000000
Si      -2.11374153       2.70718623       0.04060397       0.00000000
Si       2.28589425       0.38278242      -2.64975519       0.00000000
Si      -0.44681841      -2.36316261      -2.65211105       0.00000000
Si      -1.51150023      -2.79218093       2.12928303       0.00000000
