10
Lattice="16.28999089631971 0.0 0.0 0.0 16.28999089631971 0.0 0.0 0.0 34.64500226677339" Properties=species:S:1:pos:R:3:initial_magmoms:R:1 pbc="T T T"
Si       0.76616757       2.23462310       0.60445169       0.00000000
Si      -1.19316105      -1.08246791       1.85194963       0.00000000
Si       2.11621761      -1.31810276       0.26683596       0.00000000
Si      -1.82301390       0.84119279      -1.95259342       0.00000000
Si       0.22709889       1.81961906       2.89538839       0.00000000
Si       1.68757884      -2.62739522      -1.88624820       0.00000000
Si      -1.94830029       0.90431654       2.99520070       0.00000000
Si      -3.18816477      -1.97411735       0.63095513       0.00000000
Si       3.10036167       2.18479199       0.29638816       0.00000000
Si       1.51150023       2.79218093      -2.12928303       0.00000000
