10
Lattice="16.28999089631971 0.0 0.0 0.0 16.28999089631971 0.0 0.0 0.0 34.64500226677339" Properties=species:S:1:pos:R:3:initial_magmoms:R:1 pbc="T T T"
Si      -0.91582380      -2.01274353      -0.98355343       0.00000000
Si       1.21293711      -1.22649039       1.70749375       0.00000000
Si       1.92430512       1.10376153      -1.19349124       0.00000000
Si      -1.50620598       1.48444254       1.67860673       0.00000000
Si      -1.39400046       0.94084524      -3.02538140       0.00000000
Si       2.71808424      -2.47231701       0.27822724       0.00000000
Si       1.05546168      -3.47771952      -1.05439148       0.00000000
Si      -2.84820876      -2.58831810       0.33379439       0.00000000
Si       2.64570777       2.91103929       0.24341246       0.00000000
Si       2.55259413       0.12678507       3.08740150       0.00000000
