10
Lattice="16.28999089631971 0.0 0.0 0.0 16.28999089631971 0.0 0.0 0.0 34.64500226677339" Properties=species:S:1:pos:R:3:initial_magmoms:R:1 pbc="T T T"
Si       1.35547461      -1.35573525      -1.35714943       0.00000000
Si       1.35700587       1.35666378       1.35697621       0.00000000
Si      -1.35791811      -1.35852084       1.35756517       0.00000000
Si      -1.36036161       1.35816246      -1.36314302       0.00000000
Si       2.71497285      -2.71368594       0.00003465       0.00000000
Si      -0.00043983       2.71371852       2.71506105       0.00000000
Si       2.71428867      -0.00001629       2.71506105       0.00000000
Si      -2.71538010      -2.71453302      -0.00003465       0.00000000
Si      -0.00105885      -2.71552671       2.71509570       0.00000000
Si      -2.71604799      -0.00086337       2.71513034       0.00000000
