10
Lattice="16.28999089631971 0.0 0.0 0.0 16.28999089631971 0.0 0.0 0.0 34.64500226677339" Properties=species:S:1:pos:R:3:initial_magmoms:R:1 pbc="T T T"
Si      -0.57028032      -1.89229527       1.21815361       0.00000000
Si      -1.33063236      -0.12828375      -1.99011398       0.00000000
Si       2.37850290      -0.40417119      -0.14928540       0.00000000
Si      -0.64231470       1.91042604       1.43835736       0.00000000
Si       0.67175073      -3.33887985      -0.34364397       0.00000000
Si      -0.16413804      -1.04316273       3.48018534       0.00000000
Si      -2.78560629      -2.37244302       0.54815353       0.00000000
Si      -1.94251734       2.17766349      -2.33770748       0.00000000
Si      -3.05621577       1.88354754       1.17914331       0.00000000
Si       2.52017703      -2.64217284       0.98915001       0.00000000
