10
Lattice="16.28999089631971 0.0 0.0 0.0 16.28999089631971 0.0 0.0 0.0 34.64500226677339" Properties=species:S:1:pos:R:3:initial_magmoms:R:1 pbc="T T T"
Si       1.35711990      -1.35742941      -1.35832736       0.00000000
Si      -1.35664749       1.35760860      -1.35898562       0.00000000
Si       1.34977311       1.34879571       1.37862935       0.00000000
Si      -1.36368477      -1.34112312       1.37779787       0.00000000
Si       0.17083323      -2.50132950       2.79782801       0.00000000
Si       2.71601541       2.71238274       0.00336057       0.00000000
Si      -0.00055386       2.71451673      -2.71668937       0.00000000
Si       2.71472850      -0.00019548      -2.71651615       0.00000000
Si      -2.71570590      -0.00014661      -2.71686260       0.00000000
Si      -0.00006516      -2.71632492      -2.71634292       0.00000000
