10
Lattice="16.28999089631971 0.0 0.0 0.0 16.28999089631971 0.0 0.0 0.0 34.64500226677339" Properties=species:S:1:pos:R:3:initial_magmoms:R:1 pbc="T T T"
Si       1.56439386       0.97288767      -1.43513538       0.00000000
Si      -1.02055221      -1.66090771      -1.40689968       0.00000000
Si      -1.81125252       1.90967670       0.15257668       0.00000000
Si       1.82301390      -0.84119279       1.95259342       0.00000000
Si       1.05661827       2.88455175       1.54433648       0.00000000
Si       0.18658566       2.32788987      -2.82959750       0.00000000
Si      -2.52682987      -0.40912824      -2.83451709       0.00000000
Si      -1.75987386      -3.43020878       0.03720875       0.00000000
Si       3.33451413       1.95098814      -0.17668961       0.00000000
Si      -3.02044293       0.02130732       2.45127386       0.00000000
