10
Lattice="16.28999089631971 0.0 0.0 0.0 16.28999089631971 0.0 0.0 0.0 34.64500226677339" Properties=species:S:1:pos:R:3:initial_magmoms:R:1 pbc="T T T"
Si       1.99694223      -1.07768124      -0.49726000       0.00000000
Si      -0.97042788       1.29195990      -1.68496063       0.00000000
Si       0.56483946       1.33571484       1.86223920       0.00000000
Si      -1.24237314      -1.88866260       0.68337305       0.00000000
Si       1.14903144      -0.63723222       3.17320682       0.00000000
Si      -1.93992723      -0.37841670      -2.97999154       0.00000000
Si      -3.13338150       1.24408359       1.20724042       0.00000000
Si       2.24790597       2.69348634       0.78574909       0.00000000
Si       1.23611778      -2.94024726      -1.68703933       0.00000000
Si      -3.41677863      -1.06935705       0.50190243       0.00000000
