10
Lattice="16.28999089631971 0.0 0.0 0.0 16.28999089631971 0.0 0.0 0.0 34.64500226677339" Properties=species:S:1:pos:R:3:initial_magmoms:R:1 pbc="T T T"
Si       1.17331983      -1.53083646       1.49935339       0.00000000
Si      -1.51568676       1.20529710       1.50896738       0.00000000
Si       1.90827576       0.92172078      -1.27699960       0.00000000
Si      -2.03139558      -0.83785986      -1.28022159       0.00000000
Si       2.53586430      -0.17013276       2.88682761       0.00000000
Si       2.62260855      -2.81719260       0.04588733       0.00000000
Si      -0.18262719       2.53946439       2.89195507       0.00000000
Si      -2.83737591       2.63787228       0.11303631       0.00000000
Si       2.76687279       2.71945260       0.11291159       0.00000000
Si       3.61287765      -0.95816151      -1.28593802       0.00000000
