10
Lattice="16.28999089631971 0.0 0.0 0.0 16.28999089631971 0.0 0.0 0.0 34.64500226677339" Properties=species:S:1:pos:R:3:initial_magmoms:R:1 pbc="T T T"
Si      -1.49600844      -1.38890169       1.08705684       0.00000000
Si       2.04307551      -0.23871366       1.15139265       0.00000000
Si      -0.37742301      -0.03806973      -2.38832386       0.00000000
Si      -0.30258675       2.34958815       0.49961586       0.00000000
Si       2.93913954       1.83845682       0.32649468       0.00000000
Si       1.33612209       3.07503072      -1.00519066       0.00000000
Si       0.45973638       2.06438283      -2.95525499       0.00000000
Si      -3.08456037      -0.05141124       2.14459613       0.00000000
Si      -2.69858511      -0.01588275      -2.65169531       0.00000000
Si       2.85029388      -2.48236794       0.85794932       0.00000000
