10
Lattice="16.28999089631971 0.0 0.0 0.0 16.28999089631971 0.0 0.0 0.0 34.64500226677339" Properties=species:S:1:pos:R:3:initial_magmoms:R:1 pbc="T T T"
Si      -0.23144832       1.54712646       1.79402315       0.00000000
Si       2.19600603      -0.03761361      -0.98395326       0.00000000
Si      -1.47356082       0.71180784      -1.77451801       0.00000000
Si      -0.60747039      -2.22783343       0.78578374       0.00000000
Si       1.68616161      -1.13577790      -3.07997707       0.00000000
Si       0.09078417       0.60020505      -3.65778674       0.00000000
Si      -2.52558531      -1.79163284       2.18201275       0.00000000
Si       3.65044239      -1.21720183       0.45513165       0.00000000
Si      -2.63612925       2.04960780       1.99402886       0.00000000
Si       1.30416111       3.34580310       1.54648448       0.00000000
