10
Lattice="16.28999089631971 0.0 0.0 0.0 16.28999089631971 0.0 0.0 0.0 34.64500226677339" Properties=species:S:1:pos:R:3:initial_magmoms:R:1 pbc="T T T"
Si      -1.35705474      -1.35641943       1.35687227       0.00000000
Si       1.35676152      -1.35742941      -1.35732266       0.00000000
Si      -1.35728280       1.35668007      -1.35808485       0.00000000
Si       1.36019871       1.35951453       1.35662976       0.00000000
Si       2.70891297       0.00063531       2.71540751       0.00000000
Si       0.00140094       2.71002069       2.71734763       0.00000000
Si      -2.71472850       2.71373481       0.00000000       0.00000000
Si       0.00068418      -2.71366965      -2.71502641       0.00000000
Si       2.71477737       2.71453302       0.00003465       0.00000000
Si      -2.71428867       0.00001629      -2.71506105       0.00000000
