10
Lattice="16.28999089631971 0.0 0.0 0.0 16.28999089631971 0.0 0.0 0.0 34.64500226677339" Properties=species:S:1:pos:R:3:initial_magmoms:R:1 pbc="T T T"
Si       0.27336412       1.18499976       2.03116833       0.00000000
Si      -0.51815232       1.38002364      -1.86518403       0.00000000
Si      -1.58678188      -1.78814190       0.04015358       0.00000000
Si       2.21682628      -0.80293410      -0.47429035       0.00000000
Si       2.40922747       2.19040227       1.43638260       0.00000000
Si       0.42564793      -0.68330034       3.51054540       0.00000000
Si       2.00528434      -2.99989214       0.23842704       0.00000000
Si       0.86778622      -2.68554401       2.33039738       0.00000000
Si      -0.98929805      -3.09165371      -1.94379358       0.00000000
Si       0.48430659       3.49589916      -1.46978040       0.00000000
