10
Lattice="16.28999089631971 0.0 0.0 0.0 16.28999089631971 0.0 0.0 0.0 34.64500226677339" Properties=species:S:1:pos:R:3:initial_magmoms:R:1 pbc="T T T"
Si       0.51803829      -0.90013653       2.13146567       0.00000000
Si       1.53560943       1.79867664      -0.24753868       0.00000000
Si       0.23144832      -1.54712646      -1.79402315       0.00000000
Si      -2.40468093       0.50248134       0.20000571       0.00000000
Si      -1.32002757      -2.40868827       2.40983841       0.00000000
Si       0.00772146       1.27806453       3.44011207       0.00000000
Si       1.48282983       2.76641667       1.98117556       0.00000000
Si      -1.24211250      -0.83531862      -3.56854116       0.00000000
Si      -0.37602207      -3.77495989      -1.00823942       0.00000000
Si       0.77157585       3.38778243      -1.86954930       0.00000000
