10
Lattice="16.28999089631971 0.0 0.0 0.0 16.28999089631971 0.0 0.0 0.0 34.64500226677339" Properties=species:S:1:pos:R:3:initial_magmoms:R:1 pbc="T T T"
Si      -1.35487188      -1.35402480       1.38705848       0.00000000
Si       1.36254447       1.36070370       1.38747422       0.00000000
Si       1.44928872      -1.28635614      -1.45346606       0.00000000
Si      -1.17331983       1.53083646      -1.49935339       0.00000000
Si       2.43955782       0.57267495      -2.78529140       0.00000000
Si       0.73495593       2.45255724      -2.77635299       0.00000000
Si      -2.70262503      -2.71295289      -0.01827178       0.00000000
Si       2.73259863      -2.69244378       0.01663654       0.00000000
Si      -2.68900659       2.73613356       0.00961399       0.00000000
Si       2.72782566       2.73061125       0.02788231       0.00000000
