10
Lattice="16.28999089631971 0.0 0.0 0.0 16.28999089631971 0.0 0.0 0.0 34.64500226677339" Properties=species:S:1:pos:R:3:initial_magmoms:R:1 pbc="T T T"
Si      -1.50399054      -1.36145304       1.12059322       0.00000000
Si       0.34337691       0.97733484      -2.09318292       0.00000000
Si      -0.83820195       2.08026558       0.75844881       0.00000000
Si       1.80413379      -1.46883672       0.44345628       0.00000000
Si      -2.50160643       0.70125192       2.08878300       0.00000000
Si       0.32902542      -2.95718886       1.90239278       0.00000000
Si       1.85691339      -2.43657675      -1.78525796       0.00000000
Si       1.09287981      -0.84747096      -3.40726859       0.00000000
Si      -1.75945032       1.34254035      -2.97787819       0.00000000
Si       0.75017079       2.78730045       2.34882853       0.00000000
