10
Lattice="16.28999089631971 0.0 0.0 0.0 16.28999089631971 0.0 0.0 0.0 34.64500226677339" Properties=species:S:1:pos:R:3:initial_magmoms:R:1 pbc="T T T"
Si       0.34629282      -2.28605715      -0.23607118       0.00000000
Si      -2.09728863       0.56369916      -0.86737276       0.00000000
Si       1.82635335       0.77090796      -1.27143765       0.00000000
Si       0.65915856       0.43678377       2.25511375       0.00000000
Si       3.24829116      -0.31143222       0.31672479       0.00000000
Si      -2.05799715       2.89838196      -0.54659451       0.00000000
Si       2.44912005      -2.65126266       0.64862409       0.00000000
Si       0.97836111      -2.54519847      -2.47271913       0.00000000
Si      -1.77653853       0.31236075      -3.27374667       0.00000000
Si       2.93316111       1.20352149       2.06719915       0.00000000
