10
Lattice="16.28999089631971 0.0 0.0 0.0 16.28999089631971 0.0 0.0 0.0 34.64500226677339" Properties=species:S:1:pos:R:3:initial_magmoms:R:1 pbc="T T T"
Si       1.35526284       1.35738610       1.35753053       0.00000000
Si       1.35296595      -1.35925389      -1.35815414       0.00000000
Si      -1.35972630      -1.35809730       1.35739195       0.00000000
Si      -1.36358703       1.35597375      -1.36096038       0.00000000
Si       2.71322982      -2.71158453       0.00038110       0.00000000
Si       0.00669519      -2.70252729      -2.72266564       0.00000000
Si       2.72078838       0.00902466      -2.70480266       0.00000000
Si       2.71246419       0.00006552       2.71450673       0.00000000
Si       2.71345788       2.71528955       0.00124722       0.00000000
Si      -2.71611315      -2.71324611       0.00017323       0.00000000
