10
Lattice="16.28999089631971 0.0 0.0 0.0 16.28999089631971 0.0 0.0 0.0 34.64500226677339" Properties=species:S:1:pos:R:3:initial_magmoms:R:1 pbc="T T T"
Si      -1.80546957      -0.95676057       1.17848506       0.00000000
Si      -1.47926232       1.13819859      -1.48751865       0.00000000
Si       1.21010265      -1.57675797      -1.48886980       0.00000000
Si       1.43130456       1.30815216       1.56966199       0.00000000
Si      -0.21403431      -1.90887849       2.65612987       0.00000000
Si       2.59918353       2.52010342      -0.11076013       0.00000000
Si      -2.78976024       2.54541319      -0.03000259       0.00000000
Si      -0.14245605       2.47581936      -2.85980796       0.00000000
Si       2.57878845      -0.24097797      -2.85925363       0.00000000
Si       2.65974975      -2.81349477      -0.15174519       0.00000000
