10
Lattice="16.28999089631971 0.0 0.0 0.0 16.28999089631971 0.0 0.0 0.0 34.64500226677339" Properties=species:S:1:pos:R:3:initial_magmoms:R:1 pbc="T T T"
Si      -0.69677217      -0.98411148      -1.99790911       0.00000000
Si      -1.78232148       0.60549930       1.39144800       0.00000000
Si       0.82500705       2.17574127      -0.30844463       0.00000000
Si       1.71784566      -1.52428788       0.60982167       0.00000000
Si       1.94800707       2.10281094       1.80646072       0.00000000
Si       3.26331054       0.17778906       1.37869864       0.00000000
Si       1.25012718      -0.72415566      -3.38966892       0.00000000
Si      -2.67838551      -1.47167118       2.21634597       0.00000000
Si      -0.55674333      -3.39915285      -1.62630661       0.00000000
Si      -3.38533893       1.84207320       0.05976266       0.00000000
