10
Lattice="16.28999089631971 0.0 0.0 0.0 16.28999089631971 0.0 0.0 0.0 34.64500226677339" Properties=species:S:1:pos:R:3:initial_magmoms:R:1 pbc="T T T"
Si      -0.93683790      -1.75526283      -1.18980947       0.00000000
Si       1.08634752      -1.51123863       1.43374611       0.00000000
Si      -1.61288919       1.19279453       1.39703971       0.00000000
Si       1.87084134       0.79927700      -1.39022300       0.00000000
Si       2.55844224       2.63915105      -0.00558478       0.00000000
Si       2.43180378      -0.16154467       2.78347804       0.00000000
Si       2.53166148      -2.72091774       0.04141119       0.00000000
Si      -0.28025316       2.55235792       2.77866239       0.00000000
Si      -2.76201837      -2.70311277       0.00155903       0.00000000
Si      -2.83390614       2.66687662      -0.03065045       0.00000000
