10
Lattice="16.28999089631971 0.0 0.0 0.0 16.28999089631971 0.0 0.0 0.0 34.64500226677339" Properties=species:S:1:pos:R:3:initial_magmoms:R:1 pbc="T T T"
Si       1.35278676      -1.35657093      -1.35631795       0.00000000
Si       1.35635427       1.35734796       1.35635260       0.00000000
Si      -1.35819504      -1.35790345       1.35628331       0.00000000
Si      -1.35927018       1.35733167      -1.36113361       0.00000000
Si       0.00733050      -2.70626489      -2.70604988       0.00000000
Si       2.71489920       0.01865205      -2.70616075       0.00000000
Si       2.71413324      -0.00039096       2.71332880       0.00000000
Si       2.71519567      -2.71243106      -0.00152438       0.00000000
Si      -0.00084708       2.71480995       2.71360596       0.00000000
Si      -0.00099369      -2.71522402       2.71325951       0.00000000
