10
Lattice="16.28999089631971 0.0 0.0 0.0 16.28999089631971 0.0 0.0 0.0 34.64500226677339" Properties=species:S:1:pos:R:3:initial_magmoms:R:1 pbc="T T T"
Si      -0.16575075      -0.00985545      -2.31771730       0.00000000
Si      -1.99260909       0.85771737       1.00903625       0.00000000
Si       1.29841074       1.94139333       0.63209842       0.00000000
Si      -0.11479563      -2.45637629       0.47875955       0.00000000
Si      -1.13049342       0.93504600       3.23878985       0.00000000
Si      -3.56009805      -0.88444926       0.71434570       0.00000000
Si      -2.15291898      -2.58439940       1.68797474       0.00000000
Si       1.05494040       3.38511087      -1.29658993       0.00000000
Si      -1.56058200      -1.85155561      -2.97112241       0.00000000
Si       1.85533326       0.16032618      -3.37317789       0.00000000
