10
Lattice="16.28999089631971 0.0 0.0 0.0 16.28999089631971 0.0 0.0 0.0 34.64500226677339" Properties=species:S:1:pos:R:3:initial_magmoms:R:1 pbc="T T T"
Si       0.68760090       1.83987405       1.38463822       0.00000000
Si      -1.87084134      -0.79927700       1.39022300       0.00000000
Si       1.66026051      -1.84443525       0.08165832       0.00000000
Si      -0.01953171      -0.32029398      -3.28389767       0.00000000
Si       1.92307488       0.41440131       2.82385824       0.00000000
Si       3.27606139      -0.92251085       1.51757810       0.00000000
Si      -0.78449382      -2.31051563       2.82396911       0.00000000
Si      -2.80767924      -2.55453983       0.20041352       0.00000000
Si       0.66082014      -3.52019474       1.43163419       0.00000000
Si       1.50891012       3.56834079      -0.02089095       0.00000000
