10
Lattice="16.28999089631971 0.0 0.0 0.0 16.28999089631971 0.0 0.0 0.0 34.64500226677339" Properties=species:S:1:pos:R:3:initial_magmoms:R:1 pbc="T T T"
Si      -0.82130922      -1.72846674       1.40552917       0.00000000
Si       1.80822651       1.05487524       1.28243194       0.00000000
Si      -1.78834878       1.78023636      -0.02099488       0.00000000
Si       0.60976958      -0.34614621      -2.55247197       0.00000000
Si       2.74418801      -0.73305000      -1.73488410       0.00000000
Si      -0.45696708       1.75431897      -2.95567073       0.00000000
Si       0.41791995       2.26403307       2.80900592       0.00000000
Si      -2.30304762      -0.47131857       2.82131183       0.00000000
Si      -0.77952537       3.59600121       1.17065324       0.00000000
Si      -1.50891012      -3.56834079       0.02089095       0.00000000
