10
Lattice="16.28999089631971 0.0 0.0 0.0 16.28999089631971 0.0 0.0 0.0 34.64500226677339" Properties=species:S:1:pos:R:3:initial_magmoms:R:1 pbc="T T T"
Si       1.35677781       1.35563751       1.35579828       0.00000000
Si      -1.35891180      -1.35874890       1.35593686       0.00000000
Si      -1.36111095       1.35495333      -1.36234619       0.00000000
Si       1.35899325      -1.35806472      -1.36383592       0.00000000
Si       2.71363900      -0.00159642       2.71277448       0.00000000
Si      -0.00097740       2.71340901       2.71332880       0.00000000
Si      -2.71401174       2.71523349      -0.00048503       0.00000000
Si      -2.71606428      -0.00166158       2.71353667       0.00000000
Si      -0.00094482      -2.71648782       2.71336345       0.00000000
Si      -2.71479366      -2.71573848      -0.00058897       0.00000000
