10
Lattice="16.28999089631971 0.0 0.0 0.0 16.28999089631971 0.0 0.0 0.0 34.64500226677339" Properties=species:S:1:pos:R:3:initial_magmoms:R:1 pbc="T T T"
Si       1.35583812      -1.35513252       1.35766911       0.00000000
Si      -1.35718506       1.35589815       1.35867381       0.00000000
Si       1.35763644       1.35703845      -1.35759982       0.00000000
Si      -1.35721764      -1.35785295      -1.35753053       0.00000000
Si      -2.71218726      -2.71256193      -0.00024252       0.00000000
Si      -2.71217097       2.71682991       0.00000000       0.00000000
Si       0.00003258       2.71489140      -2.71433351       0.00000000
Si       2.71590694      -2.71349046       0.00058897       0.00000000
Si      -2.71539639       0.00024435      -2.71471460       0.00000000
Si       0.00053757      -2.71562445      -2.71506105       0.00000000
