10
Lattice="16.28999089631971 0.0 0.0 0.0 16.28999089631971 0.0 0.0 0.0 34.64500226677339" Properties=species:S:1:pos:R:3:initial_magmoms:R:1 pbc="T T T"
Si       1.35354980       1.35395964       1.38377760       0.00000000
Si      -1.36537893      -1.36155078       1.38090206       0.00000000
Si      -1.26731313       1.51324326      -1.35260747       0.00000000
Si       1.41486536      -1.33019253      -1.45134925       0.00000000
Si       2.69855972      -2.70270648       0.02633715       0.00000000
Si       2.71238993       2.70744202       0.02521465       0.00000000
Si      -2.70933651      -2.71179630      -0.02794814       0.00000000
Si      -2.71262709       2.72292237       0.03972745       0.00000000
Si       2.71056545       0.00013032       2.74425295       0.00000000
Si      -0.00267345      -2.71539639       2.74539624       0.00000000
