10
Lattice="16.28999089631971 0.0 0.0 0.0 16.28999089631971 0.0 0.0 0.0 34.64500226677339" Properties=species:S:1:pos:R:3:initial_magmoms:R:1 pbc="T T T"
Si       0.41936976       0.62431425       2.24246831       0.00000000
Si       1.99969524      -0.00333945      -1.28844835       0.00000000
Si      -1.57100760       1.22749452      -1.30483545       0.00000000
Si      -0.68887152      -2.22016410       0.56651539       0.00000000
Si      -1.92754683      -0.20882151      -3.18664909       0.00000000
Si       0.87592959      -3.01223277       2.18984253       0.00000000
Si       1.31865921       2.81555450       2.26107269       0.00000000
Si       1.52381547      -1.27627263      -3.29896825       0.00000000
Si       2.68690518       2.23812612      -1.63548754       0.00000000
Si      -3.48912252       1.66369511       0.09139357       0.00000000
