10
Lattice="16.28999089631971 0.0 0.0 0.0 16.28999089631971 0.0 0.0 0.0 34.64500226677339" Properties=species:S:1:pos:R:3:initial_magmoms:R:1 pbc="T T T"
Si       2.21081038      -0.24104313       0.74954504       0.00000000
Si      -1.00245891      -2.11587552      -0.39540363       0.00000000
Si      -1.40490824       1.35980775       1.37720890       0.00000000
Si       1.50877654       0.98779302      -1.60815261       0.00000000
Si      -2.66446800       2.42751951      -0.38941004       0.00000000
Si       0.30678631      -2.81608488      -2.27711334       0.00000000
Si       1.92492088      -1.30549689       2.90616299       0.00000000
Si      -2.13619959       1.61619606      -2.59629792       0.00000000
Si      -3.32820405      -1.68655257      -0.71448428       0.00000000
Si      -0.48430659      -3.49589916       1.46978040       0.00000000
