10
Lattice="16.28999089631971 0.0 0.0 0.0 16.28999089631971 0.0 0.0 0.0 34.64500226677339" Properties=species:S:1:pos:R:3:initial_magmoms:R:1 pbc="T T T"
Si      -1.35656604       1.35637056      -1.35697621       0.00000000
Si      -1.35663283      -1.35594702       1.35846594       0.00000000
Si       1.35698958      -1.35744570      -1.35725337       0.00000000
Si       1.35905841       1.35775521       1.35787698       0.00000000
Si      -2.71159360       0.00039096      -2.71360596       0.00000000
Si      -0.00008145      -2.71391400      -2.71419493       0.00000000
Si       2.71524978       0.00048870      -2.71384848       0.00000000
Si      -2.71490332       2.71458189       0.00027716       0.00000000
Si       2.71515204       2.71466334       0.00017323       0.00000000
Si      -2.71514100      -2.71531494      -0.00020787       0.00000000
