10
Lattice="16.28999089631971 0.0 0.0 0.0 16.28999089631971 0.0 0.0 0.0 34.64500226677339" Properties=species:S:1:pos:R:3:initial_magmoms:R:1 pbc="T T T"
Si       1.35663283       1.35594702      -1.35846594       0.00000000
Si      -1.36006881       1.35835794       1.35708014       0.00000000
Si      -1.35850817      -1.35936792      -1.35867381       0.00000000
Si       1.35677944      -1.36578618       1.35929742       0.00000000
Si       0.00006679       2.71231758      -2.71544215       0.00000000
Si      -2.71421278      -2.71407690       0.00117793       0.00000000
Si       2.71362241      -0.00149868      -2.71571931       0.00000000
Si       2.71569124       2.71370223      -0.00058897       0.00000000
Si      -2.71590694       2.71349046      -0.00058897       0.00000000
Si      -2.71536937      -0.00213399      -2.71565002       0.00000000
