10
Lattice="16.28999089631971 0.0 0.0 0.0 16.28999089631971 0.0 0.0 0.0 34.64500226677339" Properties=species:S:1:pos:R:3:initial_magmoms:R:1 pbc="T T T"
Si       2.31906069      -0.08987193       0.13899583       0.00000000
Si      -0.75668679       1.25173989       1.83230590       0.00000000
Si       0.23698692      -2.23078518       0.71108907       0.00000000
Si       0.10036269      -0.22587714      -2.36992735       0.00000000
Si       0.85462227       2.40135777      -1.91704763       0.00000000
Si       2.70581787       2.11786290      -0.37704177       0.00000000
Si      -0.00638568       3.43448586       1.38233636       0.00000000
Si       2.11551714      -2.99346669      -0.52656968       0.00000000
Si      -3.40798922      -1.60238214      -0.27705624       0.00000000
Si       0.22669164       0.39109032       3.82605761       0.00000000
