10
Lattice="16.28999089631971 0.0 0.0 0.0 16.28999089631971 0.0 0.0 0.0 34.64500226677339" Properties=species:S:1:pos:R:3:initial_magmoms:R:1 pbc="T T T"
Si       0.56682684       2.29693887       0.39495325       0.00000000
Si       1.70601912      -0.92681955      -1.44400450       0.00000000
Si      -2.43087753       0.10151928      -0.46275355       0.00000000
Si       0.59232069      -1.22093550       2.07284629       0.00000000
Si      -1.45667786       3.09192345       1.61951618       0.00000000
Si      -3.41499392      -1.15215912       1.29953476       0.00000000
Si       1.01753856       3.28416174      -1.72015997       0.00000000
Si      -3.07836107       2.38448133      -0.04729045       0.00000000
Si       3.66666723       0.48861855      -1.24947271       0.00000000
Si      -2.69321660      -0.86956020      -2.69756532       0.00000000
