10
Lattice="16.28999089631971 0.0 0.0 0.0 16.28999089631971 0.0 0.0 0.0 34.64500226677339" Properties=species:S:1:pos:R:3:initial_magmoms:R:1 pbc="T T T"
Si      -1.83077250       0.90922635       1.10656199       0.00000000
Si       0.57440169       1.38536676      -1.83466177       0.00000000
Si       1.63328427       0.91422738       1.49527913       0.00000000
Si      -0.28339713      -2.31344064      -0.70533800       0.00000000
Si       3.13338150      -1.24408359      -1.20724042       0.00000000
Si       2.16295362       0.04787631      -2.89220105       0.00000000
Si       0.98113041       3.24157968       1.42789457       0.00000000
Si      -3.56386823       0.85229280      -0.41497807       0.00000000
Si       1.89100836      -3.13274619      -0.52386737       0.00000000
Si       1.41874497       3.34370169      -0.80809513       0.00000000
