10
Lattice="16.28999089631971 0.0 0.0 0.0 16.28999089631971 0.0 0.0 0.0 34.64500226677339" Properties=species:S:1:pos:R:3:initial_magmoms:R:1 pbc="T T T"
Si       1.66832406       0.94596030       1.41775886       0.00000000
Si      -0.99527339      -1.75656699       1.34683703       0.00000000
Si       0.74684763      -1.12589964      -2.11795411       0.00000000
Si      -1.69643897       1.86487920      -0.13085425       0.00000000
Si       0.31428297       2.17406340       2.89587485       0.00000000
Si      -2.38557995      -0.54740916       2.87341102       0.00000000
Si       2.54645280       2.85050565       0.08394489       0.00000000
Si       3.16074870      -1.09902114      -1.85874006       0.00000000
Si      -3.58302527       0.78455898       1.23505834       0.00000000
Si      -0.05931189      -3.54449223      -1.67047901       0.00000000
