10
Lattice="16.290000149 0.0 0.0 0.0 16.290000149 0.0 0.0 0.0 29.1751946751" Properties=species:S:1:pos:R:3:initial_magmoms:R:1 pbc="T T T"
Si       1.32845603      -1.36028017       1.37447260       0.00000000
Si      -1.37004766      -1.36889758      -1.32539992       0.00000000
Si      -1.36547017       1.35141841       1.34949863       0.00000000
Si       1.36799186       1.36489024      -1.34392617       0.00000000
Si      -2.69497853       0.01462842      -2.68560584       0.00000000
Si       0.00924783      -2.71854201      -2.66553331       0.00000000
Si       2.68412613       0.00762372       2.71180517       0.00000000
Si      -0.02306501       2.71239905       2.70351941       0.00000000
Si       2.72724576       0.00733050      -2.69570046       0.00000000
Si      -2.70167372       2.72681570      -0.00376360       0.00000000
