10
Lattice="16.290000149 0.0 0.0 0.0 16.290000149 0.0 0.0 0.0 29.1751946751" Properties=species:S:1:pos:R:3:initial_magmoms:R:1 pbc="T T T"
Si       1.32629923       1.38302101      -1.37564544       0.00000000
Si       1.34931700      -1.36171369       1.37667241       0.00000000
Si      -1.36115983       1.34869798       1.39125709       0.00000000
Si      -1.38614869      -1.37945350      -1.34410705       0.00000000
Si       2.52341876      -0.09001854      -2.80660121       0.00000000
Si      -2.64033209      -2.75343357       0.07948198       0.00000000
Si      -2.83911897       0.03736926      -2.55910804       0.00000000
Si       2.71837748       0.04401558       2.69271876       0.00000000
Si      -0.07117101       2.80802136      -2.60047846       0.00000000
Si       2.63371835       2.83206540      -0.00621723       0.00000000
