10
Lattice="16.290000149 0.0 0.0 0.0 16.290000149 0.0 0.0 0.0 29.1751946751" Properties=species:S:1:pos:R:3:initial_magmoms:R:1 pbc="T T T"
Si      -1.36707310      -1.35804844      -1.32933857       0.00000000
Si      -1.43788573       1.33485148       1.28082022       0.00000000
Si       1.35355240       1.35146728      -1.36160634       0.00000000
Si       1.36332640      -1.32620149       1.38016176       0.00000000
Si      -0.08742843       2.67791312       2.59288708       0.00000000
Si      -0.09399330      -2.62444934       2.68271750       0.00000000
Si       0.00446346      -2.71516835      -2.66127373       0.00000000
Si      -2.71026506       0.02508660      -2.67282711       0.00000000
Si       2.73162125      -0.01523115      -2.67291464       0.00000000
Si       2.73092078       2.69169446      -0.02961282       0.00000000
