10
Lattice="16.290000149 0.0 0.0 0.0 16.290000149 0.0 0.0 0.0 29.1751946751" Properties=species:S:1:pos:R:3:initial_magmoms:R:1 pbc="T T T"
Si       1.35674524       1.30419370       1.37359734       0.00000000
Si       1.71807374      -0.79964353      -1.35580047       0.00000000
Si      -1.45665018       1.15452118      -1.43504030       0.00000000
Si      -1.28185034      -1.64258587       1.14369681       0.00000000
H       -0.29237292      -1.69308488       2.44952017       0.00000000
Si      -1.67439373      -0.71995285      -2.84466901       0.00000000
Si       0.63376246      -0.89725321      -3.45017100       0.00000000
Si       2.56704338      -2.63839358      -0.22896693       0.00000000
Si      -0.09614358       2.48596805       2.72790054       0.00000000
Si      -2.91529101       2.35273214      -0.08058189       0.00000000
