10
Lattice="16.290000149 0.0 0.0 0.0 16.290000149 0.0 0.0 0.0 29.1751946751" Properties=species:S:1:pos:R:3:initial_magmoms:R:1 pbc="T T T"
Si      -1.33597549       1.15388587       1.55782119       0.00000000
Si       1.42096042      -1.36565587       1.34010130       0.00000000
Si      -1.30741912      -1.44904438      -1.36942821       0.00000000
Si       0.83745262       1.99806626      -1.09054690       0.00000000
H        1.89400574       0.30061566      -1.88827987       0.00000000
Si      -0.91017118       3.53843238      -0.63883757       0.00000000
Si      -2.74260072       2.51602310       0.30284436       0.00000000
Si      -2.70488936      -0.02404404      -2.59426123       0.00000000
Si       0.08842212       2.61162911       2.78188107       0.00000000
Si      -2.63371835      -2.83206540       0.00621723       0.00000000
