10
Lattice="16.290000149 0.0 0.0 0.0 16.290000149 0.0 0.0 0.0 29.1751946751" Properties=species:S:1:pos:R:3:initial_magmoms:R:1 pbc="T T T"
Si      -1.33209847       1.36594746      -1.37245951       0.00000000
Si       1.37065527       1.37194544       1.33003877       0.00000000
Si       1.36993363      -1.33980364      -1.37972413       0.00000000
Si      -1.37863900      -1.32704857       1.38929360       0.00000000
Si      -2.63642249      -2.69472440      -0.06625687       0.00000000
Si       0.06018578      -2.67664250       2.67597803       0.00000000
Si      -0.02568933       2.70925508       2.67799112       0.00000000
Si      -2.70291827       2.70565499      -0.00679782       0.00000000
Si      -2.66400146       0.01145187      -2.75600559       0.00000000
Si       2.77664682       0.03354111       2.66279084       0.00000000
