10
Lattice="16.290000149 0.0 0.0 0.0 16.290000149 0.0 0.0 0.0 29.1751946751" Properties=species:S:1:pos:R:3:initial_magmoms:R:1 pbc="T T T"
Si      -1.50174253      -1.36120870       1.16117275       0.00000000
Si       1.39214341      -1.35324289      -1.31352561       0.00000000
Si       1.33926607       1.28777338       1.43051815       0.00000000
Si      -1.34203537       1.34688979      -1.38328351       0.00000000
H       -0.85866220      -2.20345058       2.24077165       0.00000000
Si      -0.00749340      -2.72435592      -2.62722628       0.00000000
Si       2.69044013       2.67268403       0.07605973       0.00000000
Si      -2.93382903      -0.13519071       2.44663183       0.00000000
Si       2.74502793      -2.66320325       0.11279130       0.00000000
Si       2.73227285      -0.00474039      -2.68604347       0.00000000
