10
Lattice="16.290000149 0.0 0.0 0.0 16.290000149 0.0 0.0 0.0 29.1751946751" Properties=species:S:1:pos:R:3:initial_magmoms:R:1 pbc="T T T"
Si       1.34711785       1.35913987       1.36070190       0.00000000
Si      -1.35412255       1.36609570      -1.35437089       0.00000000
Si      -1.35951454      -1.34351776       1.37202188       0.00000000
Si       1.37815030      -1.34522821      -1.35413749       0.00000000
Si      -0.05253525      -2.74460439      -2.59912473       0.00000000
Si       2.67882536      -2.69493617       0.06401038       0.00000000
Si       0.03577284       2.66750381      -2.72633733       0.00000000
Si      -0.02225214       2.72391608       2.69602139       0.00000000
Si       2.69350265       0.00022806       2.72872678       0.00000000
Si      -2.67620267       0.02974554      -2.74935656       0.00000000
