10
Lattice="16.290000149 0.0 0.0 0.0 16.290000149 0.0 0.0 0.0 29.1751946751" Properties=species:S:1:pos:R:3:initial_magmoms:R:1 pbc="T T T"
Si      -1.34156296       1.35374788       1.34534087       0.00000000
Si       1.39747024      -1.42500034       1.22483302       0.00000000
Si       1.39422853       1.23162175      -1.42783403       0.00000000
Si      -1.50475618      -1.28510182      -1.28487557       0.00000000
H        0.51012135       2.08269281      -2.31607283       0.00000000
Si       2.70488936       0.02404404       2.59426123       0.00000000
Si      -2.55280592       2.77180869      -0.10517658       0.00000000
Si      -2.66536982      -0.05027094       2.68589176       0.00000000
Si       2.42299091      -0.25466157      -2.90179404       0.00000000
Si       0.07117101      -2.80802136       2.60047846       0.00000000
