10
Lattice="16.290000149 0.0 0.0 0.0 16.290000149 0.0 0.0 0.0 29.1751946751" Properties=species:S:1:pos:R:3:initial_magmoms:R:1 pbc="T T T"
Si       1.74710252       0.32240517      -1.49210698       0.00000000
Si      -1.91816381       1.06015321      -0.77816079       0.00000000
Si       0.63874720       0.67694236       2.14609815       0.00000000
Si      -0.04359204      -2.14513401       0.98022819       0.00000000
Si       1.86426020      -1.98285303      -1.72705482       0.00000000
Si      -0.60484771      -1.10892710       2.98961137       0.00000000
H        1.32678793       2.98789391       0.00784813       0.00000000
Si      -0.75623068       2.50015501      -2.28170445       0.00000000
Si      -2.89237098       1.46326392       1.37397662       0.00000000
Si       2.15094791      -2.86865437       0.51412528       0.00000000
