10
Lattice="16.290000149 0.0 0.0 0.0 16.290000149 0.0 0.0 0.0 29.1751946751" Properties=species:S:1:pos:R:3:initial_magmoms:R:1 pbc="T T T"
Si      -2.19453995       0.72352036       0.46610291       0.00000000
Si      -0.26774244      -2.03066255       1.19597876       0.00000000
Si       1.57517785       1.31053051       1.20610255       0.00000000
Si      -0.28668771       0.88580134      -2.24118010       0.00000000
H        2.24717294      -0.95298130      -1.63363585       0.00000000
H        0.80886367      -1.86417875      -2.18224621       0.00000000
H        1.61705944      -2.61083090      -0.52850865       0.00000000
H        1.04454739      -2.49012200       1.80226848       0.00000000
Si      -2.15094791       2.86865437      -0.51412528       0.00000000
Si      -2.41375448      -0.08410527      -2.92122472       0.00000000
