10
Lattice="16.290000149 0.0 0.0 0.0 16.290000149 0.0 0.0 0.0 29.1751946751" Properties=species:S:1:pos:R:3:initial_magmoms:R:1 pbc="T T T"
Si       1.38003180      -1.45086235       1.15688399       0.00000000
Si      -1.23147061      -1.36141917      -1.44449306       0.00000000
Si       1.40954928       1.29519185      -1.38812659       0.00000000
Si      -1.21753481       1.28562962       1.60565684       0.00000000
H        1.61397249       1.51745261       2.11140884       0.00000000
Si       2.22691633       0.21166412       2.55169170       0.00000000
Si      -2.50586629       2.63343165       0.10438885       0.00000000
Si      -2.54341474      -2.69805734      -0.07798530       0.00000000
Si       0.06160552       2.63095557      -2.76373702       0.00000000
Si      -2.70056437      -0.06818342      -2.71626897       0.00000000
