10
Lattice="16.290000149 0.0 0.0 0.0 16.290000149 0.0 0.0 0.0 29.1751946751" Properties=species:S:1:pos:R:3:initial_magmoms:R:1 pbc="T T T"
Si      -2.24569055       0.50601627      -0.27833136       0.00000000
Si       0.92876133      -0.81597751      -1.99666280       0.00000000
Si       0.28389805      -1.82616701       1.56959630       0.00000000
Si       1.33601948       1.97558606       0.49238976       0.00000000
Si       2.96794029       0.79128676       1.70042983       0.00000000
Si       1.63074142      -0.61406296       3.05233221       0.00000000
Si       2.77006566      -1.98987239      -1.06428193       0.00000000
Si      -0.94014478      -1.71364937      -3.11961604       0.00000000
Si      -2.97730704       1.13757958       1.90154816       0.00000000
Si       1.45365771      -3.41729994       0.28177403       0.00000000
