10
Lattice="16.290000149 0.0 0.0 0.0 16.290000149 0.0 0.0 0.0 29.1751946751" Properties=species:S:1:pos:R:3:initial_magmoms:R:1 pbc="T T T"
Si       1.37078722      -1.34493499      -1.33978329       0.00000000
Si       1.37771047       1.33555195       1.34518070       0.00000000
Si      -1.34944732      -1.36438525       1.35682160       0.00000000
Si      -1.34638480       1.35891181      -1.36802488       0.00000000
Si      -0.00035838       2.70225038       2.65648900       0.00000000
Si      -0.01467729      -2.69516423      -2.66471641       0.00000000
Si      -2.72098388      -0.00726534       2.68875677       0.00000000
Si       2.74176993       0.01283652      -2.67778689       0.00000000
Si      -2.69350265      -0.00022806      -2.72872678       0.00000000
Si       2.73660600       2.69127092      -0.00884008       0.00000000
