10
Lattice="16.290000149 0.0 0.0 0.0 16.290000149 0.0 0.0 0.0 29.1751946751" Properties=species:S:1:pos:R:3:initial_magmoms:R:1 pbc="T T T"
Si      -1.43051125       1.21386565      -1.38360443       0.00000000
Si       1.14393268      -1.42716691      -1.46342776       0.00000000
Si      -1.47909129      -1.20344005       1.38754308       0.00000000
Si       1.50460957       1.34076475       1.30162214       0.00000000
H        0.03564252      -2.67242339       0.75639610       0.00000000
H       -2.61659756      -0.23781771       1.67771957       0.00000000
H        2.05027571      -2.32684733      -0.65544992       0.00000000
Si      -0.18875223      -1.04848957       3.41273922       0.00000000
Si      -0.06271650       2.64150497      -2.68344688       0.00000000
Si      -2.86547619       2.45837279      -0.01423749       0.00000000
