10
Lattice="16.290000149 0.0 0.0 0.0 16.290000149 0.0 0.0 0.0 29.1751946751" Properties=species:S:1:pos:R:3:initial_magmoms:R:1 pbc="T T T"
Si       0.61348141       0.51647445      -2.18189611       0.00000000
Si      -2.30096252      -0.06395454       0.45002738       0.00000000
Si       0.77353066       2.04488372       0.87858181       0.00000000
Si       1.22124502      -1.87029890       0.95257011       0.00000000
Si       1.69792301       1.00255177       2.71475186       0.00000000
Si       3.03121065      -0.54372763       1.55725519       0.00000000
Si       1.30135924      -1.53334839      -2.94742404       0.00000000
Si      -0.24066846      -0.02717172       3.61588610       0.00000000
Si      -2.44392356       0.35215722       2.80811249       0.00000000
Si      -3.16304562       2.01228743      -0.34415060       0.00000000
