10
Lattice="16.290000149 0.0 0.0 0.0 16.290000149 0.0 0.0 0.0 29.1751946751" Properties=species:S:1:pos:R:3:initial_magmoms:R:1 pbc="T T T"
Si       1.42356682      -1.36031275      -1.27063808       0.00000000
Si       1.35907471       1.34944732       1.35218275       0.00000000
Si      -1.32315526      -1.38807091       1.38138712       0.00000000
Si      -1.34027605       1.33648048      -1.42167806       0.00000000
Si       0.03826521      -2.70480791      -2.55125991       0.00000000
Si      -2.68436396       2.61679304       0.03751930       0.00000000
Si       2.69951366       2.70495452      -0.03203436       0.00000000
Si       2.70523145      -0.03139083       2.70588261       0.00000000
Si       0.01570356       2.68092677       2.73838377       0.00000000
Si       2.70995555      -0.02915910      -2.73356695       0.00000000
