10
Lattice="16.290000149 0.0 0.0 0.0 16.290000149 0.0 0.0 0.0 29.1751946751" Properties=species:S:1:pos:R:3:initial_magmoms:R:1 pbc="T T T"
Si       1.27195807      -1.36107838      -1.42267002       0.00000000
Si       1.35817127       1.41170770       1.31247531       0.00000000
Si      -1.39126636       1.35570268      -1.35069481       0.00000000
Si      -1.29551374      -1.35860230       1.44545585       0.00000000
Si       2.61990183      -2.69684210      -0.04705959       0.00000000
Si      -0.07679367       2.65621484       2.68184224       0.00000000
Si      -2.72224082      -2.62995536       0.04075775       0.00000000
Si       2.61389082       0.00747711      -2.78573511       0.00000000
Si      -0.03525417       2.70270650      -2.74395623       0.00000000
Si      -0.10728855      -2.72274320      -2.75641404       0.00000000
