10
Lattice="16.290000149 0.0 0.0 0.0 16.290000149 0.0 0.0 0.0 29.1751946751" Properties=species:S:1:pos:R:3:initial_magmoms:R:1 pbc="T T T"
Si      -2.23230017       0.50414292      -0.32749156       0.00000000
Si       0.89191009      -1.42092784       1.59115677       0.00000000
Si       0.56125567      -1.03620691      -2.00938318       0.00000000
Si       1.24359490       1.78586946      -0.84351323       0.00000000
H       -0.01373247      -1.49433058       2.80971712       0.00000000
Si       0.60484771       1.10892710      -2.98961137       0.00000000
Si       2.77882968      -0.07983729       1.97901181       0.00000000
Si       3.30046806       1.17419461       0.04720547       0.00000000
Si       1.16348068       1.44891895       3.05648092       0.00000000
Si      -1.06008805      -2.72302013      -2.08074571       0.00000000
