10
Lattice="16.290000149 0.0 0.0 0.0 16.290000149 0.0 0.0 0.0 29.1751946751" Properties=species:S:1:pos:R:3:initial_magmoms:R:1 pbc="T T T"
Si      -1.35488818       1.35812989      -1.30348935       0.00000000
Si       1.38691432       1.35250984       1.29275288       0.00000000
Si       1.36099693      -1.34757397      -1.33371485       0.00000000
Si      -1.34664544      -1.30842910       1.39194854       0.00000000
H       -0.44030241      -2.20810952       2.19992638       0.00000000
Si       2.60964173      -0.18104706       2.53389483       0.00000000
Si      -2.66536982      -0.07162713      -2.62643855       0.00000000
Si      -2.55329462       2.76024279       0.17192942       0.00000000
Si       2.60178995      -2.73704583       0.03848208       0.00000000
Si       0.01710450       2.61172685      -2.73561213       0.00000000
