10
Lattice="16.290000149 0.0 0.0 0.0 16.290000149 0.0 0.0 0.0 29.1751946751" Properties=species:S:1:pos:R:3:initial_magmoms:R:1 pbc="T T T"
H        1.28308186       0.03552849       0.81708050       0.00000000
Si      -1.36096109      -1.38391208       1.33669072       0.00000000
Si       0.60248566      -1.51597674      -1.75914754       0.00000000
Si      -0.79249059       2.26165475       0.21449603       0.00000000
Si       0.52163838       1.99625807      -1.69627499       0.00000000
Si       0.48034323      -2.55780695       2.26907159       0.00000000
Si       2.73333171       1.91138717      -0.89483240       0.00000000
H       -3.05891994       1.00106938      -1.50304768       0.00000000
Si       3.59541480      -0.16485480      -0.10065442       0.00000000
Si       2.67061520      -2.24257102      -0.91394215       0.00000000
