10
Lattice="16.290000149 0.0 0.0 0.0 16.290000149 0.0 0.0 0.0 29.1751946751" Properties=species:S:1:pos:R:3:initial_magmoms:R:1 pbc="T T T"
Si      -1.27829423       1.37302384      -1.38722507       0.00000000
Si       1.30157101       1.32902618       1.42348984       0.00000000
Si      -1.41145521      -1.39033522       1.25652020       0.00000000
Si       1.32776533      -1.31509171      -1.42086699       0.00000000
Si       2.64451862       2.66229101       0.07551416       0.00000000
Si       2.65816964      -2.70925508      -0.05135418       0.00000000
Si      -0.04588893      -2.73717615       2.62959239       0.00000000
Si      -0.09772371      -2.67577913      -2.70305903       0.00000000
Si      -2.70979640       2.68161095      -0.03543911       0.00000000
Si      -2.69424352      -0.04509072       2.71166221       0.00000000
