10
Lattice="16.290000149 0.0 0.0 0.0 16.290000149 0.0 0.0 0.0 29.1751946751" Properties=species:S:1:pos:R:3:initial_magmoms:R:1 pbc="T T T"
Si       0.84893707      -1.87450661      -1.11816851       0.00000000
Si       1.48344886       1.24851448       1.37937403       0.00000000
Si      -1.39605301       1.31242015      -1.42771733       0.00000000
Si      -1.31035132      -1.36296802       1.48991884       0.00000000
H        1.39070989      -1.61767846      -2.50247315       0.00000000
H        2.65557953       0.13515813      -2.07050522       0.00000000
Si      -0.00128691       2.54527115       2.71816536       0.00000000
Si      -2.80448643       2.49179987       0.04344186       0.00000000
H       -0.22330332      -0.79006501      -3.66314992       0.00000000
Si      -2.66709656      -2.66716172       0.11632150       0.00000000
