10
Lattice="16.290000149 0.0 0.0 0.0 16.290000149 0.0 0.0 0.0 29.1751946751" Properties=species:S:1:pos:R:3:initial_magmoms:R:1 pbc="T T T"
Si       1.35980776      -1.35293827       1.35297048       0.00000000
Si      -1.36270738       1.36239299       1.34564750       0.00000000
Si       1.35006634       1.38747959      -1.33546536       0.00000000
Si      -1.34656399      -1.38801064      -1.33925814       0.00000000
Si      -2.78073561      -0.04194023      -2.60120201       0.00000000
Si       0.00034209      -2.71659047       2.69543789       0.00000000
Si       2.79288795       0.05612394      -2.61856125       0.00000000
Si      -0.00293220       2.70558495       2.70950033       0.00000000
Si      -0.02704140       2.72734839      -2.69447510       0.00000000
Si      -2.72692973       0.01475548       2.69587551       0.00000000
