10
Lattice="16.290000149 0.0 0.0 0.0 16.290000149 0.0 0.0 0.0 29.1751946751" Properties=species:S:1:pos:R:3:initial_magmoms:R:1 pbc="T T T"
Si       1.21753481      -1.28562962      -1.60565684       0.00000000
Si      -1.28833148       1.34780203      -1.50126799       0.00000000
Si      -1.43914430      -1.42215611       1.34643523       0.00000000
Si       1.31677349       1.70080634       1.13689899       0.00000000
H        2.83150730       0.23182299       0.50575200       0.00000000
H        0.17926722       2.66642867       1.42707547       0.00000000
H       -0.97344577       0.86056813       3.35532244       0.00000000
Si      -2.62907994      -2.57054101      -0.34581358       0.00000000
Si       3.44445114      -1.07396550       0.94603486       0.00000000
Si       2.59756661      -2.73649197      -0.44877284       0.00000000
