10
Lattice="16.290000149 0.0 0.0 0.0 16.290000149 0.0 0.0 0.0 29.1751946751" Properties=species:S:1:pos:R:3:initial_magmoms:R:1 pbc="T T T"
Si       1.35765422      -1.24556599       1.45472422       0.00000000
Si      -1.16975966       1.59113293       1.28782227       0.00000000
Si       1.31640794       1.42742755      -1.34605596       0.00000000
Si      -1.46149320      -1.37880190      -1.35375821       0.00000000
Si      -0.52489638       2.60132243      -2.27843683       0.00000000
Si       2.81054305      -2.42734034       0.10042102       0.00000000
Si      -1.45365771       3.41729994      -0.28177403       0.00000000
Si      -0.00285238      -2.57701286      -2.70821662       0.00000000
Si      -2.64450559       0.28025316       2.66094405       0.00000000
Si       0.01621832      -2.70953201       2.68654529       0.00000000
