10
Lattice="16.290000149 0.0 0.0 0.0 16.290000149 0.0 0.0 0.0 29.1751946751" Properties=species:S:1:pos:R:3:initial_magmoms:R:1 pbc="T T T"
Si      -1.36422235      -1.34763750       1.35022801       0.00000000
Si      -1.36293544       1.36547668      -1.33587381       0.00000000
Si       1.35977518       1.34319196       1.36385283       0.00000000
Si       1.36270738      -1.36239299      -1.34564750       0.00000000
Si       0.01019754      -2.69405651       2.68700625       0.00000000
Si       2.71277372       0.02508660      -2.68111287       0.00000000
Si       0.00804726       2.72324819      -2.67387742       0.00000000
Si      -2.74839996       0.01524744      -2.66080693       0.00000000
Si      -0.00050499       2.69465924       2.71705670       0.00000000
Si      -2.71404434      -2.71757927      -0.00105031       0.00000000
