10
Lattice="16.290000149 0.0 0.0 0.0 16.290000149 0.0 0.0 0.0 29.1751946751" Properties=species:S:1:pos:R:3:initial_magmoms:R:1 pbc="T T T"
H        1.31228983      -0.45945945       0.60628972       0.00000000
Si      -1.25967313       0.24855282       1.93711623       0.00000000
Si       0.26774244       2.03066255      -1.19597876       0.00000000
Si      -0.97164964      -1.99664903      -0.87697718       0.00000000
H        1.88480189      -0.58016836      -1.72448741       0.00000000
Si       3.07019262      -1.09330336      -0.92534965       0.00000000
H       -0.88676245      -2.82266607       1.69574984       0.00000000
Si      -1.92679751       2.75418291      -0.72987585       0.00000000
Si      -3.32125410      -0.44541747       1.03469828       0.00000000
H        1.07660611       0.16648380      -3.37822497       0.00000000
