10
Lattice="16.290000149 0.0 0.0 0.0 16.290000149 0.0 0.0 0.0 29.1751946751" Properties=species:S:1:pos:R:3:initial_magmoms:R:1 pbc="T T T"
Si      -1.26794356       1.42806286       1.32105165       0.00000000
Si       1.63192081      -1.18429930       1.20804007       0.00000000
Si       0.69273714       1.74392597      -1.51509703       0.00000000
Si      -1.33601948      -1.97558606      -0.49238976       0.00000000
Si       0.29472194      -2.58964902       2.55994245       0.00000000
Si       0.16121236       0.85400326      -3.61124725       0.00000000
Si      -2.58845985       0.10200798       2.68541912       0.00000000
Si      -0.40725815      -2.79156357      -2.48905256       0.00000000
Si       0.21318560       2.81838180       2.51329423       0.00000000
Si      -2.40865083       2.92542339      -0.05753348       0.00000000
