10
Lattice="16.290000149 0.0 0.0 0.0 16.290000149 0.0 0.0 0.0 29.1751946751" Properties=species:S:1:pos:R:3:initial_magmoms:R:1 pbc="T T T"
Si      -1.35485560      -1.35466012       1.33456093       0.00000000
Si      -1.37441989       1.34641901      -1.33677824       0.00000000
Si       1.30666978       1.31389277       1.44656450       0.00000000
Si       1.35285193      -1.38492694      -1.33721587       0.00000000
Si       0.04012227      -2.80520319       2.52814732       0.00000000
Si       2.67340079       2.67292838       0.06952449       0.00000000
Si      -0.01019754       2.69405651      -2.68700625       0.00000000
Si       2.71231760      -0.02127474      -2.67968328       0.00000000
Si      -2.72424188      -0.02352276      -2.68805656       0.00000000
Si      -2.72433962       2.69563664       0.03702332       0.00000000
