10
Lattice="16.290000149 0.0 0.0 0.0 16.290000149 0.0 0.0 0.0 29.1751946751" Properties=species:S:1:pos:R:3:initial_magmoms:R:1 pbc="T T T"
Si       1.35205209       1.35291709       1.36102283       0.00000000
Si       1.38826476      -1.36106209      -1.32292003       0.00000000
Si      -1.33820722      -1.35738055       1.38057021       0.00000000
Si      -1.34615674       1.38083815      -1.35369986       0.00000000
Si      -2.68952789       2.71231760       0.03250117       0.00000000
Si       0.05346508      -2.73735533      -2.66883011       0.00000000
Si      -2.70523145       0.03139083      -2.70588261       0.00000000
Si       2.69099399      -0.00632052       2.72402958       0.00000000
Si       2.71068860       2.70505226      -0.00140041       0.00000000
Si      -2.69692355      -2.72290610       0.04942278       0.00000000
