10
Lattice="16.290000149 0.0 0.0 0.0 16.290000149 0.0 0.0 0.0 29.1751946751" Properties=species:S:1:pos:R:3:initial_magmoms:R:1 pbc="T T T"
Si       0.88410718      -0.85107106       0.88823880       0.00000000
H       -1.89079661      -0.42424047      -1.23898299       0.00000000
Si       0.90176554       0.99025282      -2.06968831       0.00000000
Si      -0.98515405      -0.35083773      -2.45754335       0.00000000
Si      -0.71358346       2.51900906      -0.99221920       0.00000000
Si      -1.44414109       2.17320168       1.27040468       0.00000000
Si       1.91286956      -2.33735438      -0.58572121       0.00000000
Si      -0.51012135      -2.08269281       2.31607283       0.00000000
Si       2.78104512       0.45263394       1.51964836       0.00000000
Si       2.83240749      -0.50272569      -1.75354590       0.00000000
