10
Lattice="16.290000149 0.0 0.0 0.0 16.290000149 0.0 0.0 0.0 29.1751946751" Properties=species:S:1:pos:R:3:initial_magmoms:R:1 pbc="T T T"
H        0.90634303      -0.89968042       0.80797784       0.00000000
Si       1.34664544       1.30842910      -1.39194854       0.00000000
Si      -1.14393268       1.42716691       1.46342776       0.00000000
Si      -1.31271337      -1.46751724      -1.27971156       0.00000000
H       -1.10829016      -1.24525648       2.21982386       0.00000000
Si      -2.57444393       2.64103256       0.07982333       0.00000000
Si      -0.49534632      -2.55104497       2.66010672       0.00000000
Si      -2.66065713      -0.13175352      -2.65532199       0.00000000
Si      -0.00824274       2.66655899      -2.69543789       0.00000000
Si       2.73355977       2.66093894      -0.09919566       0.00000000
