10
Lattice="16.290000149 0.0 0.0 0.0 16.290000149 0.0 0.0 0.0 29.1751946751" Properties=species:S:1:pos:R:3:initial_magmoms:R:1 pbc="T T T"
Si       1.41951061      -1.37259541       1.25304544       0.00000000
Si       1.37642356       1.32017419      -1.36344437       0.00000000
Si      -1.33867963       1.33055092       1.40860757       0.00000000
Si      -1.35638686      -1.38184813      -1.35054894       0.00000000
Si       0.11733687      -2.60907158       2.75337982       0.00000000
Si      -2.68574047       2.68333769       0.02234820       0.00000000
Si       0.00288333       2.67235823      -2.70845002       0.00000000
Si      -2.80416225      -0.05123205       2.62430876       0.00000000
Si       2.78518278       2.64561005      -0.00732297       0.00000000
Si       0.07374483       2.72499122       2.70772064       0.00000000
