10
Lattice="16.290000149 0.0 0.0 0.0 16.290000149 0.0 0.0 0.0 29.1751946751" Properties=species:S:1:pos:R:3:initial_magmoms:R:1 pbc="T T T"
Si      -1.56537127       1.28329363      -1.12228221       0.00000000
Si      -1.39053070      -1.43588206       1.17672313       0.00000000
Si       1.55960461       1.12374937       1.46876683       0.00000000
Si       1.07206120      -1.11061963      -1.86651225       0.00000000
Si       2.09548046      -2.44654625      -0.24787245       0.00000000
Si       0.30918420      -3.03448494       1.19384897       0.00000000
Si       0.05108544       2.30941703      -2.51808188       0.00000000
Si       1.83313001       0.76173670      -3.14654475       0.00000000
Si      -2.97818670      -2.24637473      -0.39147276       0.00000000
Si      -2.53974134       2.73668744       0.39001400       0.00000000
