10
Lattice="16.290000149 0.0 0.0 0.0 16.290000149 0.0 0.0 0.0 29.1751946751" Properties=species:S:1:pos:R:3:initial_magmoms:R:1 pbc="T T T"
Si       2.24569055      -0.50601627       0.27833136       0.00000000
Si      -1.57424932      -1.68677250      -0.44331708       0.00000000
Si      -0.73161649       0.63156331       2.17987952       0.00000000
Si      -0.07408692       1.45922563      -1.93384860       0.00000000
H        0.25967889      -1.10584014      -2.82255421       0.00000000
Si      -2.82699921      -0.58270960      -2.04844877       0.00000000
Si      -1.30303711       3.31068189      -1.26760386       0.00000000
Si       1.30554577      -2.21966565      -2.84128468       0.00000000
Si       3.17445188      -1.32199378      -1.71833144       0.00000000
H       -0.00869886       3.85783042      -0.34047452       0.00000000
