10
Lattice="16.290000149 0.0 0.0 0.0 16.290000149 0.0 0.0 0.0 29.1751946751" Properties=species:S:1:pos:R:3:initial_magmoms:R:1 pbc="T T T"
Si      -1.49050243       1.26499996       1.28423372       0.00000000
Si       1.29551374       1.35860230      -1.44545585       0.00000000
Si      -1.42672708      -1.27135306      -1.40469810       0.00000000
Si       1.28833148      -1.34780203       1.50126799       0.00000000
H        1.46759869       1.31862664       2.92834346       0.00000000
Si      -2.88287391      -0.55912168       2.03304427       0.00000000
Si      -2.77511556      -2.29136771       0.22815002       0.00000000
Si       2.50586629      -2.63343165      -0.10438885       0.00000000
Si       2.60510497       0.35300430       2.63816698       0.00000000
Si       2.65368501       2.77031001      -0.13298054       0.00000000
