10
Lattice="16.290000149 0.0 0.0 0.0 16.290000149 0.0 0.0 0.0 29.1751946751" Properties=species:S:1:pos:R:3:initial_magmoms:R:1 pbc="T T T"
Si       1.34337115      -1.33147945      -1.38620102       0.00000000
Si      -1.36151821       1.33967332      -1.36548664       0.00000000
Si      -1.35003376      -1.39142665       1.32893012       0.00000000
Si       1.37112931       1.34775316       1.35515862       0.00000000
Si      -2.73061127      -0.04468347       2.64867005       0.00000000
Si      -2.70006752      -0.06413373      -2.70086447       0.00000000
Si       2.68952789      -2.71231760      -0.03250117       0.00000000
Si      -2.71696025       2.69206913       0.00064185       0.00000000
Si       0.02707398       2.71264340       2.70599931       0.00000000
Si      -0.01570356      -2.68092677      -2.73838377       0.00000000
