10
Lattice="16.290000149 0.0 0.0 0.0 16.290000149 0.0 0.0 0.0 29.1751946751" Properties=species:S:1:pos:R:3:initial_magmoms:R:1 pbc="T T T"
Si      -1.36663327       1.35751087      -1.32825909       0.00000000
Si       1.34902378       1.36166482       1.34777729       0.00000000
Si      -1.37588599      -1.33037173       1.35527532       0.00000000
Si       1.37497375      -1.36449928      -1.33187681       0.00000000
Si       2.66859524      -0.07910424       2.62407536       0.00000000
Si       0.00210141       2.70220151      -2.67023052       0.00000000
Si       0.01016496      -2.71976213      -2.67912895       0.00000000
Si      -2.70712109      -0.00527796      -2.69316222       0.00000000
Si      -2.68490153       2.71994132       0.06275584       0.00000000
Si       2.73513989      -0.00128691      -2.67481102       0.00000000
