10
Lattice="16.290000149 0.0 0.0 0.0 16.290000149 0.0 0.0 0.0 29.1751946751" Properties=species:S:1:pos:R:3:initial_magmoms:R:1 pbc="T T T"
Si       1.57900600      -1.08592399       1.32169467       0.00000000
Si      -1.23044887      -1.13728636      -1.62546680       0.00000000
Si      -1.60111153      -0.07376112       1.79094850       0.00000000
Si       1.29722158       1.59024610      -1.27603549       0.00000000
H        0.93274912      -1.91254376       2.39849275       0.00000000
H       -0.50556015      -2.82374121       1.84988239       0.00000000
Si      -1.71826922       2.23149707       2.02589634       0.00000000
Si      -2.64541457      -2.46389510      -0.38689226       0.00000000
Si       2.81655732      -2.45205227      -0.09619062       0.00000000
Si       0.13180239      -2.50696586      -2.88732314       0.00000000
