10
Lattice="16.290000149 0.0 0.0 0.0 16.290000149 0.0 0.0 0.0 29.1751946751" Properties=species:S:1:pos:R:3:initial_magmoms:R:1 pbc="T T T"
Si      -1.31017213      -1.36194175      -1.34615223       0.00000000
Si       1.31732344      -1.39079134       1.34165050       0.00000000
Si      -1.40950855       1.32937804       1.31355479       0.00000000
Si       1.30725622       1.29163411      -1.46950788       0.00000000
Si      -0.04140918       2.65958687       2.67405247       0.00000000
Si       2.69343749      -0.02718801       2.64960365       0.00000000
Si       2.67631670       2.69736338      -0.15346152       0.00000000
Si       2.64494216      -2.74908414      -0.02459469       0.00000000
Si      -2.75465532       2.65264733      -0.08708796       0.00000000
Si      -2.77083129      -0.04471605       2.65141252       0.00000000
