10
Lattice="16.290000149 0.0 0.0 0.0 16.290000149 0.0 0.0 0.0 29.1751946751" Properties=species:S:1:pos:R:3:initial_magmoms:R:1 pbc="T T T"
Si      -1.34372953      -1.32719518      -1.40738222       0.00000000
Si      -1.38556225       1.35022924       1.35472099       0.00000000
Si       1.35601219       1.34700382      -1.39326142       0.00000000
Si       1.39126636      -1.35570268       1.35069481       0.00000000
Si      -2.68385897      -2.67569768      -0.03486436       0.00000000
Si       2.66322443      -2.71678106      -0.07197521       0.00000000
Si      -2.71712315       2.66546756      -0.08802156       0.00000000
Si       0.02340873       2.71425611       2.67349814       0.00000000
Si       2.74943763       0.05600502       2.66317012       0.00000000
Si      -2.73673631      -0.03468141       2.70917940       0.00000000
