10
Lattice="16.290000149 0.0 0.0 0.0 16.290000149 0.0 0.0 0.0 29.1751946751" Properties=species:S:1:pos:R:3:initial_magmoms:R:1 pbc="T T T"
Si       0.46017621      -0.42370290       2.21282182       0.00000000
Si       1.82838962       1.29484324      -0.63599007       0.00000000
Si      -1.65131732       1.65452645      -0.09759103       0.00000000
Si      -0.66469717      -1.87809041      -1.29517442       0.00000000
H        1.81884368       0.14265153       2.49418739       0.00000000
Si       0.79666246       2.12198429      -2.58953193       0.00000000
Si      -2.08124463      -0.65423899      -2.67294381       0.00000000
Si      -3.42264306       0.64720171      -1.24925266       0.00000000
Si      -0.73059022       3.38633265      -1.37543538       0.00000000
Si       3.65137095      -0.16081488      -0.80363074       0.00000000
