10
Lattice="16.290000149 0.0 0.0 0.0 16.290000149 0.0 0.0 0.0 29.1751946751" Properties=species:S:1:pos:R:3:initial_magmoms:R:1 pbc="T T T"
Si      -1.32313897      -1.33801972      -1.33749595       0.00000000
Si       1.31588210      -1.43553346       1.27641477       0.00000000
Si      -1.44282160       1.33135565       1.28309589       0.00000000
Si       1.30032923       1.29116822      -1.47068655       0.00000000
Si       2.62966703      -0.05293761       2.64158048       0.00000000
Si      -0.07455933       2.68023282       2.62150794       0.00000000
Si      -2.74045044       0.00559399      -2.59094401       0.00000000
Si       2.66249464       2.68292067      -0.14879349       0.00000000
Si      -0.15135039       2.67423810      -2.69699584       0.00000000
Si      -0.08213418      -2.76974963       2.61170508       0.00000000
