10
Lattice="16.290000149 0.0 0.0 0.0 16.290000149 0.0 0.0 0.0 29.1751946751" Properties=species:S:1:pos:R:3:initial_magmoms:R:1 pbc="T T T"
H        1.19594665       0.36574308       0.89182735       0.00000000
Si       0.84654244       1.48261807      -1.63652419       0.00000000
Si      -0.77431095      -2.11730906       1.16969190       0.00000000
Si       0.53981802      -2.38270574      -0.74107912       0.00000000
Si      -2.19193355       1.41255478       1.04660176       0.00000000
H        2.60447780      -1.67480750       1.33838288       0.00000000
Si      -3.41611077      -0.16931826      -0.37443445       0.00000000
H       -1.88802731      -1.57203388      -2.47609877       0.00000000
Si      -0.24278616      -1.22738635       3.26584212       0.00000000
Si       1.26967519       3.29701458      -0.15302390       0.00000000
