10
Lattice="16.290000149 0.0 0.0 0.0 16.290000149 0.0 0.0 0.0 29.1751946751" Properties=species:S:1:pos:R:3:initial_magmoms:R:1 pbc="T T T"
Si      -1.39214341       1.35324289       1.31352561       0.00000000
Si       1.34012944       1.34850250      -1.37251786       0.00000000
Si      -1.39963681      -1.37111302      -1.31370067       0.00000000
Si       1.35288451      -1.30996036       1.42631692       0.00000000
Si       2.58491351      -2.74022238       0.01035719       0.00000000
Si       2.68385897       2.67569768       0.03486436       0.00000000
Si      -2.89388595      -0.00796581       2.47469836       0.00000000
Si      -0.05287734       2.64101627       2.74404376       0.00000000
Si       2.66370824      -0.02241504      -2.74602767       0.00000000
Si      -2.73417879       2.70013268      -0.06975789       0.00000000
