10
Lattice="16.290000149 0.0 0.0 0.0 16.290000149 0.0 0.0 0.0 29.1751946751" Properties=species:S:1:pos:R:3:initial_magmoms:R:1 pbc="T T T"
Si       1.33894190      -1.35923761       1.36300674       0.00000000
Si      -1.35205209      -1.35291709      -1.36102283       0.00000000
Si      -1.32758451       1.34904007       1.39542039       0.00000000
Si       1.35863651       1.35213517      -1.36242324       0.00000000
Si       2.68987161       0.02704140       2.68601430       0.00000000
Si      -2.67045068       2.70715367       0.02663695       0.00000000
Si       0.03621267      -2.71397918      -2.68394286       0.00000000
Si      -2.69025932      -2.71029764       0.01954738       0.00000000
Si      -2.69820884       0.02792106      -2.71472269       0.00000000
Si       2.69912433       2.71492400       0.00247989       0.00000000
