10
Lattice="16.290000149 0.0 0.0 0.0 16.290000149 0.0 0.0 0.0 29.1751946751" Properties=species:S:1:pos:R:3:initial_magmoms:R:1 pbc="T T T"
Si       1.30412854      -1.38033316       1.37517280       0.00000000
Si      -1.37310040      -1.38393325      -1.30961614       0.00000000
Si      -1.32357880       1.37091754       1.37350981       0.00000000
Si       1.35384562       1.34794864      -1.37374322       0.00000000
Si      -2.68332140       2.69627195      -0.01768017       0.00000000
Si       2.68337516      -0.01866834       2.70891683       0.00000000
Si      -0.00228060      -2.72364078      -2.67527783       0.00000000
Si      -2.69692355      -0.01961316      -2.70229406       0.00000000
Si       2.69625078       2.70892928      -0.01972243       0.00000000
Si      -2.66370824       0.02241504       2.74602767       0.00000000
