10
Lattice="16.290000149 0.0 0.0 0.0 16.290000149 0.0 0.0 0.0 29.1751946751" Properties=species:S:1:pos:R:3:initial_magmoms:R:1 pbc="T T T"
Si       1.34048782       1.36278883       1.36490313       0.00000000
Si      -1.35069351       1.36054081      -1.35863047       0.00000000
Si      -1.35863651      -1.35213517       1.36242324       0.00000000
Si       1.36930483      -1.35340579      -1.35136584       0.00000000
Si      -2.68142997       2.70943427       0.03212189       0.00000000
Si       2.70712109       0.00527796       2.69316222       0.00000000
Si       0.00835677      -2.70728399      -2.70404457       0.00000000
Si      -2.71068860      -2.70505226       0.00140041       0.00000000
Si       2.70922250       2.70747947       0.02293170       0.00000000
Si       2.71728605      -2.71448417       0.01403327       0.00000000
