10
Lattice="16.290000149 0.0 0.0 0.0 16.290000149 0.0 0.0 0.0 29.1751946751" Properties=species:S:1:pos:R:3:initial_magmoms:R:1 pbc="T T T"
H        1.35866746       0.56635444       0.28136558       0.00000000
Si      -0.46017621       0.42370290      -2.21282182       0.00000000
Si      -1.35501850       1.36337527       1.31845622       0.00000000
Si      -0.45136332      -2.20799549       0.61066600       0.00000000
H        2.28421640      -1.18729666      -0.18012765       0.00000000
H        2.97268068      -0.26125902       1.44204235       0.00000000
Si       0.63294796      -2.11038581       2.70503652       0.00000000
Si       1.36821340       1.71854615      -2.84881188       0.00000000
Si      -2.75951951      -2.03069513       1.21616799       0.00000000
Si      -2.54177596      -0.15622110       2.62579670       0.00000000
