10
Lattice="16.290000149 0.0 0.0 0.0 16.290000149 0.0 0.0 0.0 29.1751946751" Properties=species:S:1:pos:R:3:initial_magmoms:R:1 pbc="T T T"
Si       1.34684337       1.21210405       1.48273591       0.00000000
Si       1.16975966      -1.59113293      -1.28782227       0.00000000
Si      -1.47474593      -1.31087977       1.37312178       0.00000000
Si      -0.28389805       1.82616701      -1.56959630       0.00000000
Si       2.48616761      -0.16370538      -2.63387822       0.00000000
Si       2.68404224       2.61745377       0.13083353       0.00000000
Si       0.64486328       1.01018950      -3.56625910       0.00000000
Si      -0.08465880       2.52069117       2.83452187       0.00000000
Si       2.52741389      -2.83669892       0.16690195       0.00000000
Si       2.62513760      -0.16091979       2.86996098       0.00000000
