10
Lattice="16.290000149 0.0 0.0 0.0 16.290000149 0.0 0.0 0.0 29.1751946751" Properties=species:S:1:pos:R:3:initial_magmoms:R:1 pbc="T T T"
Si       1.39991374       1.41672502       1.25794687       0.00000000
Si      -1.26112294       1.39156349      -1.43101412       0.00000000
Si       1.42988734      -1.28210446      -1.41196272       0.00000000
Si      -1.29722158      -1.59024610       1.27603549       0.00000000
Si      -2.52767045      -2.72753246      -0.34943131       0.00000000
Si       0.28178442      -2.67617009       2.59773016       0.00000000
Si      -2.58463658       2.78583438      -0.06611099       0.00000000
Si       2.86900750       0.12348928       2.52972278       0.00000000
Si      -2.56779272       0.07767072      -2.87757863       0.00000000
Si       2.86871213      -2.63169839      -0.12527829       0.00000000
