10
Lattice="16.290000149 0.0 0.0 0.0 16.290000149 0.0 0.0 0.0 29.1751946751" Properties=species:S:1:pos:R:3:initial_magmoms:R:1 pbc="T T T"
Si       1.35092971       1.38627901       1.32300755       0.00000000
Si      -1.33894190       1.35923761      -1.36300674       0.00000000
Si       1.38855961      -1.35092971      -1.33342310       0.00000000
Si      -1.35059251      -1.36547668       1.36382365       0.00000000
Si       2.66093894      -0.04116483       2.62022423       0.00000000
Si      -2.66652641       2.70827768       0.03241364       0.00000000
Si       0.04046436      -2.71298549      -2.68362193       0.00000000
Si      -2.69099399       0.00632052      -2.72402958       0.00000000
Si      -2.69299766      -2.72645732       0.00980287       0.00000000
Si       0.01969461       2.71137278      -2.72542999       0.00000000
