10
Lattice="16.290000149 0.0 0.0 0.0 16.290000149 0.0 0.0 0.0 29.1751946751" Properties=species:S:1:pos:R:3:initial_magmoms:R:1 pbc="T T T"
Si      -1.74710252      -0.32240517       1.49210698       0.00000000
Si       0.11715768      -2.30525819      -0.23494784       0.00000000
Si      -0.98220556       0.86083528      -1.98659736       0.00000000
Si       1.83498707       1.18572142       1.00482288       0.00000000
H       -0.42031458       2.66548874       1.49995511       0.00000000
Si      -2.50333319       2.17774985      -0.78959747       0.00000000
Si       1.71826922      -2.23149707      -2.02589634       0.00000000
Si      -1.06339492       3.50773062       0.42035620       0.00000000
Si       0.40384539      -3.19105953       2.00623226       0.00000000
Si      -3.66526632       0.73774804       0.71394619       0.00000000
