10
Lattice="16.28999089631971 0.0 0.0 0.0 16.28999089631971 0.0 0.0 0.0 34.529650657227435" Properties=species:S:1:pos:R:3:initial_magmoms:R:1 pbc="T T T"
Si       2.28276657       0.22576311      -0.23746054       0.00000000
Si      -0.16252533      -1.13627637       2.06898329       0.00000000
Si      -1.28193666      -1.23896853      -1.55725359       0.00000000
Si      -0.54032138       2.31385345       0.08418334       0.00000000
Si       2.30840703       1.36811565      -2.24145900       0.00000000
Si      -3.37671242       0.46758816       0.91047834       0.00000000
Si       2.74988232       1.36019871       1.78252515       0.00000000
Si      -2.74065308       2.17024895      -0.63230732       0.00000000
Si       1.38075669       0.16223211       3.34526895       0.00000000
Si      -3.24611549      -1.59174477      -0.30213461       0.00000000
