10
Lattice="16.28999089631971 0.0 0.0 0.0 16.28999089631971 0.0 0.0 0.0 34.529650657227435" Properties=species:S:1:pos:R:3:initial_magmoms:R:1 pbc="T T T"
Si       1.43474175       1.31033502       1.43199863       0.00000000
Si      -1.30080374      -1.36493910       1.50930020       0.00000000
Si      -1.46009062       1.63637937      -1.20681196       0.00000000
Si       0.21954033      -1.60161651      -1.92247390       0.00000000
Si      -1.05078645       0.07690509      -3.16512767       0.00000000
Si       2.48648931      -2.81968497      -0.03856964       0.00000000
Si      -1.29516740      -3.32229663      -1.27694172       0.00000000
Si       0.01632258       2.60446237       2.91493055       0.00000000
Si      -2.84464844      -2.70744687       0.29224777       0.00000000
Si       2.46268962       3.10987733       0.13038403       0.00000000
