10
Lattice="16.28999089631971 0.0 0.0 0.0 16.28999089631971 0.0 0.0 0.0 34.529650657227435" Properties=species:S:1:pos:R:3:initial_magmoms:R:1 pbc="T T T"
Si       1.35812988      -1.35818939       1.36036541       0.00000000
Si      -1.35780408       1.35781874       1.36202283       0.00000000
Si       1.36153449       1.36897739      -1.36267544       0.00000000
Si      -1.35514881      -1.37084401      -1.37301363       0.00000000
Si       2.71412577       2.71360286       0.00276237       0.00000000
Si      -2.71584599      -2.71203318       0.00296955       0.00000000
Si      -2.71385698       2.71554137       0.00452339       0.00000000
Si       2.71542897      -2.71652922      -0.00186460       0.00000000
Si      -2.71403617      -0.00079821       2.71800297       0.00000000
Si       0.00115659       2.71438478       2.71800297       0.00000000
