10
Lattice="16.28999089631971 0.0 0.0 0.0 16.28999089631971 0.0 0.0 0.0 34.529650657227435" Properties=species:S:1:pos:R:3:initial_magmoms:R:1 pbc="T T T"
Si       1.38922749      -1.23557044      -1.41446649       0.00000000
Si       1.35259128       1.34462547       1.36543782       0.00000000
Si      -1.36153449      -1.36897739       1.36267544       0.00000000
Si      -1.39310451       1.27879758      -1.47855701       0.00000000
Si      -0.27031626      -2.23440645      -2.79488470       0.00000000
Si      -2.26044927      -0.59350986      -2.74833871       0.00000000
Si       2.71674846       2.68807806      -0.02485446       0.00000000
Si      -2.72715777       2.67876018      -0.01202323       0.00000000
Si       2.42963721       0.20427660      -2.95575843       0.00000000
Si      -0.00175932       2.70220149       2.72362785       0.00000000
