10
Lattice="16.28999089631971 0.0 0.0 0.0 16.28999089631971 0.0 0.0 0.0 34.529650657227435" Properties=species:S:1:pos:R:3:initial_magmoms:R:1 pbc="T T T"
Si      -0.19702755      -2.37297149      -0.22551327       0.00000000
Si      -2.10419559       1.01516022       0.76365818       0.00000000
Si       2.29568454       0.81976167       0.41684218       0.00000000
Si      -0.19297134       0.75126222      -2.41220821       0.00000000
Si       0.08733069      -0.25907616       2.68930881       0.00000000
Si       0.71638533       2.04183747       2.95328814       0.00000000
Si      -0.74979612       3.03867144      -2.00710613       0.00000000
Si       1.96734330       3.01053861       1.13954817       0.00000000
Si       1.95509322      -3.23164997       0.08031601       0.00000000
Si      -3.72959876      -0.61528144       0.36197453       0.00000000
