10
Lattice="16.28999089631971 0.0 0.0 0.0 16.28999089631971 0.0 0.0 0.0 34.529650657227435" Properties=species:S:1:pos:R:3:initial_magmoms:R:1 pbc="T T T"
Si       1.91088216      -1.21550767       0.51739257       0.00000000
Si      -2.03507712      -0.43071900       1.18046583       0.00000000
Si       0.62905464       2.30091363       0.26397933       0.00000000
Si      -0.08733069       0.25907616      -2.68930881       0.00000000
Si      -2.19152628       1.27423638      -1.92565063       0.00000000
Si      -2.72916144       1.61958438       0.40738105       0.00000000
Si       2.20835385       1.07883783      -2.27246664       0.00000000
Si       3.48899220       0.18254574      -0.51987871       0.00000000
Si      -3.13584129      -1.69624870      -0.47167529       0.00000000
Si      -0.28435824      -2.11389533      -2.91482209       0.00000000
