10
Lattice="16.28999089631971 0.0 0.0 0.0 16.28999089631971 0.0 0.0 0.0 34.529650657227435" Properties=species:S:1:pos:R:3:initial_magmoms:R:1 pbc="T T T"
Si      -1.35259128      -1.34462547      -1.36543782       0.00000000
Si      -1.35435060       1.35757602       1.35819004       0.00000000
Si       1.35796698      -1.35617508       1.35856986       0.00000000
Si       1.36415718       1.34345259      -1.39029227       0.00000000
Si       0.03663621      -2.58019591      -2.77990431       0.00000000
Si      -2.71412577      -2.71360286      -0.00276237       0.00000000
Si      -2.71296918       0.00078192       2.71524060       0.00000000
Si       0.00197109      -2.71397753       2.71582760       0.00000000
Si      -2.71386513       2.71720458      -0.00559381       0.00000000
Si       0.00169416       2.71585251       2.71575854       0.00000000
