10
Lattice="16.28999089631971 0.0 0.0 0.0 16.28999089631971 0.0 0.0 0.0 34.529650657227435" Properties=species:S:1:pos:R:3:initial_magmoms:R:1 pbc="T T T"
Si      -1.36879983       1.21826394      -1.46497995       0.00000000
Si       1.34183988       1.36511829       1.36701582       0.00000000
Si      -1.37600001      -1.35050616       1.35783093       0.00000000
Si       1.25488386      -1.44593298      -1.45102306       0.00000000
Si      -2.18505915      -0.70781679      -2.65253126       0.00000000
Si      -0.41081751      -2.31751314      -2.94271658       0.00000000
Si       2.68814322       2.68962561      -0.01109093       0.00000000
Si       2.69467551       0.00592956       2.72227084       0.00000000
Si       2.70202230      -2.72425815      -0.02686754       0.00000000
Si      -0.01648548      -2.71013472       2.72161477       0.00000000
