10
Lattice="16.28999089631971 0.0 0.0 0.0 16.28999089631971 0.0 0.0 0.0 34.529650657227435" Properties=species:S:1:pos:R:3:initial_magmoms:R:1 pbc="T T T"
Si      -0.51666993       2.26657431       0.32544214       0.00000000
Si      -2.04040395      -0.77799411      -0.98913693       0.00000000
Si       0.67673547      -0.80612694       2.15751737       0.00000000
Si       1.81221363      -0.43460091      -1.61526343       0.00000000
Si       1.00507671      -2.99690388       1.43481138       0.00000000
Si      -1.48357917      -3.06540333      -1.39423901       0.00000000
Si       1.46362392       3.48500115       0.17171605       0.00000000
Si      -1.62872307       2.39505354       2.44349209       0.00000000
Si      -1.87225857       2.97632961      -1.51478209       0.00000000
Si      -3.74534793      -0.76851333       0.67667794       0.00000000
