10
Lattice="16.28999089631971 0.0 0.0 0.0 16.28999089631971 0.0 0.0 0.0 34.529650657227435" Properties=species:S:1:pos:R:3:initial_magmoms:R:1 pbc="T T T"
Si      -1.98382878       1.14041403       0.31901962       0.00000000
Si       1.50715080      -0.10720449       1.80907847       0.00000000
Si      -0.62905464      -2.30091363      -0.26397933       0.00000000
Si       1.25095797       0.96870114      -1.81373997       0.00000000
Si       1.57929921      -1.22207580      -2.53644597       0.00000000
Si      -3.35821608      -0.68132925       0.14340172       0.00000000
Si       3.50194275      -0.25301628       0.52719900       0.00000000
Si       2.85993756      -2.11836789      -0.78385804       0.00000000
Si      -0.71638533      -2.04183747      -2.95328814       0.00000000
Si       3.08858400       1.90307925      -0.54919440       0.00000000
