10
Lattice="16.28999089631971 0.0 0.0 0.0 16.28999089631971 0.0 0.0 0.0 34.529650657227435" Properties=species:S:1:pos:R:3:initial_magmoms:R:1 pbc="T T T"
Si       1.66570137       0.87158016       1.49169352       0.00000000
Si      -1.77424164       1.60969635       0.29018531       0.00000000
Si      -0.99701316      -1.81602549       1.46214648       0.00000000
Si       1.19347056       1.84353930      -1.77019806       0.00000000
Si       1.55900187      -1.70225613      -2.08421088       0.00000000
Si       0.95066811       0.19924299      -3.50362202       0.00000000
Si       3.00996846       2.06928612      -0.13249034       0.00000000
Si      -2.33106642      -0.41606289       2.92868027       0.00000000
Si       0.41081751       2.31751314       2.94271658       0.00000000
Si      -0.95798232       3.53577708       1.47773663       0.00000000
