10
Lattice="16.28999089631971 0.0 0.0 0.0 16.28999089631971 0.0 0.0 0.0 34.529650657227435" Properties=species:S:1:pos:R:3:initial_magmoms:R:1 pbc="T T T"
Si      -1.34630334      -1.32450732       1.37810675       0.00000000
Si      -1.39440771       1.21269276      -1.49885701       0.00000000
Si       1.36635633       1.38948813       1.36792050       0.00000000
Si       1.22479623      -1.50258960      -1.50111525       0.00000000
Si       2.28496572       0.35592021      -2.60862575       0.00000000
Si       0.51075666       2.10833325      -2.82251189       0.00000000
Si      -2.68814322      -2.68962561       0.01109093       0.00000000
Si       2.72189610      -2.69140122      -0.01615643       0.00000000
Si       0.00653229      -2.68369605       2.73336177       0.00000000
Si      -2.69418681       2.74181877      -0.02014806       0.00000000
