10
Lattice="16.28999089631971 0.0 0.0 0.0 16.28999089631971 0.0 0.0 0.0 34.529650657227435" Properties=species:S:1:pos:R:3:initial_magmoms:R:1 pbc="T T T"
Si       1.36879983      -1.21826394       1.46497995       0.00000000
Si       1.10755710       1.49542200      -1.50087151       0.00000000
Si      -0.81625932      -1.92608073      -1.18755131       0.00000000
Si      -1.36273995       1.49107257       1.44186233       0.00000000
Si       2.62368369      -2.66419692       0.01395689       0.00000000
Si       2.66253534       2.68405443      -0.04496799       0.00000000
Si      -0.00720018      -2.56877010       2.82281088       0.00000000
Si      -2.77216867      -2.65259844       0.02905326       0.00000000
Si      -2.31787152      -1.28576970      -2.81510528       0.00000000
Si       2.71063971       0.14685435       2.83199577       0.00000000
