10
Lattice="16.28999089631971 0.0 0.0 0.0 16.28999089631971 0.0 0.0 0.0 34.529650657227435" Properties=species:S:1:pos:R:3:initial_magmoms:R:1 pbc="T T T"
Si       1.35948195      -1.35400851      -1.35452989       0.00000000
Si      -1.35790182      -1.35573525       1.35715415       0.00000000
Si       1.35744570       1.35848826       1.35701603       0.00000000
Si      -1.35718506       1.35790182      -1.36305872       0.00000000
Si       2.71231758      -2.71319724       0.00072512       0.00000000
Si      -0.00035838      -2.71357191       2.71461906       0.00000000
Si      -2.71586880      -2.71319724       0.00003453       0.00000000
Si       2.71521720       0.00123804       2.71492983       0.00000000
Si      -2.71629234       0.00102627       2.71420471       0.00000000
Si       2.71433754       2.71728603      -0.00024171       0.00000000
