10
Lattice="16.28999089631971 0.0 0.0 0.0 16.28999089631971 0.0 0.0 0.0 34.529650657227435" Properties=species:S:1:pos:R:3:initial_magmoms:R:1 pbc="T T T"
Si       0.92059677       1.70057826       1.26036748       0.00000000
Si       0.17829405      -2.00339307       1.31164404       0.00000000
Si      -2.29426731       0.73018296      -0.17523808       0.00000000
Si       2.73382038       0.30498138       1.80949282       0.00000000
Si      -0.46828863       1.31660667       3.13539762       0.00000000
Si      -2.23251192       1.16856315      -2.60056756       0.00000000
Si       0.38108826      -3.74023287      -0.23172862       0.00000000
Si       2.27289483      -1.89959319       2.35223018       0.00000000
Si       1.37223702      -2.70138699      -2.49853239       0.00000000
Si      -2.22303114      -0.36945720       3.39033017       0.00000000
