10
Lattice="16.28999089631971 0.0 0.0 0.0 16.28999089631971 0.0 0.0 0.0 34.529650657227435" Properties=species:S:1:pos:R:3:initial_magmoms:R:1 pbc="T T T"
Si      -1.96392959      -1.09576674       0.61241823       0.00000000
Si       1.10076417       1.26552970       1.65214112       0.00000000
Si       1.48235742      -1.61561322      -0.88040299       0.00000000
Si      -0.68108816       1.34004342      -1.85565899       0.00000000
Si       0.94431501       2.97048508      -1.45397534       0.00000000
Si      -2.19809834      -2.25709713      -1.40556475       0.00000000
Si       0.40667985       3.31583308       0.87905634       0.00000000
Si       3.13584129       1.69624870       0.47167529       0.00000000
Si      -0.06092460      -2.91412170      -2.15668866       0.00000000
Si      -1.34173399      -2.51842131       2.35495802       0.00000000
