10
Lattice="16.28999089631971 0.0 0.0 0.0 16.28999089631971 0.0 0.0 0.0 34.529650657227435" Properties=species:S:1:pos:R:3:initial_magmoms:R:1 pbc="T T T"
Si      -1.56527352      -1.75689279       0.01695407       0.00000000
Si      -1.02136671       2.12379246       0.19654288       0.00000000
Si       1.11205314      -0.12847923      -2.11804995       0.00000000
Si       1.00626588      -0.06768495       2.23030591       0.00000000
Si       0.95451255       3.22608789       0.80695839       0.00000000
Si      -0.74523492      -1.29829671       3.34530348       0.00000000
Si      -0.92932821      -3.02946759       1.84678487       0.00000000
Si      -3.56559104      -0.83051307       0.83958892       0.00000000
Si       1.62872307      -2.39505354      -2.44349209       0.00000000
Si      -2.61004896       0.11098377       2.83585273       0.00000000
