10
Lattice="16.28999089631971 0.0 0.0 0.0 16.28999089631971 0.0 0.0 0.0 34.529650657227435" Properties=species:S:1:pos:R:3:initial_magmoms:R:1 pbc="T T T"
Si       1.35718506      -1.35790182       1.36305872       0.00000000
Si      -1.36034532       1.35738054       1.36292060       0.00000000
Si      -1.35671265      -1.36769211      -1.38160461       0.00000000
Si       1.36878354       1.35441576      -1.38972599       0.00000000
Si       2.71666701      -2.71191033       0.00852883       0.00000000
Si      -2.71661325      -2.71208952       0.00403997       0.00000000
Si       2.71399545       2.71511946       0.00031077       0.00000000
Si      -0.00071676      -2.71363707       2.72021287       0.00000000
Si       2.71463076       0.00058644       2.72007475       0.00000000
Si      -2.71579061       0.00123804       2.72031646       0.00000000
