10
Lattice="16.28999089631971 0.0 0.0 0.0 16.28999089631971 0.0 0.0 0.0 34.529650657227435" Properties=species:S:1:pos:R:3:initial_magmoms:R:1 pbc="T T T"
Si       1.34521191       1.36070370       1.39003675       0.00000000
Si      -1.36878354      -1.35441576       1.38972599       0.00000000
Si      -1.30694670       1.41226155      -1.46404419       0.00000000
Si       1.29977910      -1.52912601      -1.47870895       0.00000000
Si       2.70736542       2.71386790       0.00166433       0.00000000
Si      -2.72536587       2.70638890       0.01888773       0.00000000
Si       2.69418681      -2.74181877       0.02014806       0.00000000
Si      -2.72549619      -2.72210787       0.00812138       0.00000000
Si       2.70273906       0.00496845       2.75254300       0.00000000
Si      -0.01159848      -2.71231758       2.75278471       0.00000000
