10
Lattice="16.28999089631971 0.0 0.0 0.0 16.28999089631971 0.0 0.0 0.0 34.529650657227435" Properties=species:S:1:pos:R:3:initial_magmoms:R:1 pbc="T T T"
Si       1.35752715      -1.35573525       1.36250625       0.00000000
Si      -1.35729909       1.35833983       1.36223001       0.00000000
Si      -1.34521191      -1.36070370      -1.39003675       0.00000000
Si       1.36215351       1.35316420      -1.38837242       0.00000000
Si       2.71533123      -2.71303434      -0.00196819       0.00000000
Si      -2.71399545      -2.71511946      -0.00031077       0.00000000
Si       2.71552671       2.71507126      -0.00037983       0.00000000
Si      -2.71542897       2.71652922       0.00186460       0.00000000
Si       0.00063531      -2.71453302       2.71976398       0.00000000
Si      -2.71490769       0.00105885       2.71993663       0.00000000
