10
Lattice="16.28999089631971 0.0 0.0 0.0 16.28999089631971 0.0 0.0 0.0 34.529650657227435" Properties=species:S:1:pos:R:3:initial_magmoms:R:1 pbc="T T T"
Si       1.35845568      -1.35780408      -1.36219548       0.00000000
Si      -1.35900954       1.35876519      -1.36160848       0.00000000
Si       1.35698958       1.35666378       1.37365933       0.00000000
Si      -1.35894438      -1.37046141       1.39341030       0.00000000
Si      -0.08374689       2.69992715       2.69134607       0.00000000
Si      -2.71044423      -2.71362078      -0.00031077       0.00000000
Si      -2.71606428       2.71624347      -0.00649158       0.00000000
Si       2.64992688      -0.15341922       2.77742853       0.00000000
Si       2.71725345      -2.71608057      -0.00445433       0.00000000
Si       2.72031597       2.71309950      -0.00455792       0.00000000
