10
Lattice="16.28999089631971 0.0 0.0 0.0 16.28999089631971 0.0 0.0 0.0 34.529650657227435" Properties=species:S:1:pos:R:3:initial_magmoms:R:1 pbc="T T T"
Si      -0.13833468       2.13600996       0.96862630       0.00000000
Si       0.32120622      -1.74552237       1.54440855       0.00000000
Si       2.14667991       0.01238040      -1.00156761       0.00000000
Si      -1.77679917      -0.25734942      -1.57510542       0.00000000
Si       1.42530984      -1.26897471      -2.90101022       0.00000000
Si      -0.38791377       0.12662217      -3.45013556       0.00000000
Si      -2.75757120       1.86025284      -1.35718868       0.00000000
Si       0.66080385      -3.62066427       0.04205714       0.00000000
Si      -0.06535548       1.74245985       3.24167994       0.00000000
Si       3.55270239      -0.66904659       0.82232409       0.00000000
