10
Lattice="16.28999089631971 0.0 0.0 0.0 16.28999089631971 0.0 0.0 0.0 34.529650657227435" Properties=species:S:1:pos:R:3:initial_magmoms:R:1 pbc="T T T"
Si       0.48286818       0.01601307      -2.35513067       0.00000000
Si      -2.06096193       0.95446368       0.78934826       0.00000000
Si       2.07083367       0.73401111       1.01565571       0.00000000
Si      -0.47258919      -2.35928070       0.28887522       0.00000000
Si       1.39589010      -3.24131904      -0.81963078       0.00000000
Si       1.12598109      -2.20275009      -2.94386154       0.00000000
Si       1.94385312       0.62662743       3.34450930       0.00000000
Si      -3.88066081       0.17568765      -0.60375128       0.00000000
Si       2.53765620       1.02423375      -2.82297317       0.00000000
Si      -1.93662036      -3.10883247      -1.45746284       0.00000000
