10
Lattice="16.28999089631971 0.0 0.0 0.0 16.28999089631971 0.0 0.0 0.0 34.529650657227435" Properties=species:S:1:pos:R:3:initial_magmoms:R:1 pbc="T T T"
Si      -1.90177605      -1.02890898       0.85005141       0.00000000
Si      -0.80011593       2.19721149      -0.10686933       0.00000000
Si       1.52717121       0.26665101       1.87730910       0.00000000
Si       0.35938998      -1.05568974      -2.16504484       0.00000000
Si       2.73408102       2.04563304       0.74601352       0.00000000
Si       1.25340147       3.25645245      -0.75599259       0.00000000
Si      -2.88750024       2.03388795      -1.21202595       0.00000000
Si      -1.27839033      -0.12424383      -3.62713465       0.00000000
Si      -3.47325606      -1.72838529      -0.76849233       0.00000000
Si      -0.52540137      -3.40264543      -1.98055281       0.00000000
