10
Lattice="16.28999089631971 0.0 0.0 0.0 16.28999089631971 0.0 0.0 0.0 34.529650657227435" Properties=species:S:1:pos:R:3:initial_magmoms:R:1 pbc="T T T"
Si      -1.13531526       0.02011815       2.03010289       0.00000000
Si       0.83149047      -2.19488202      -0.07955636       0.00000000
Si      -1.55572758      -0.14177187      -1.76760833       0.00000000
Si       1.47818718       1.91418903      -0.15438215       0.00000000
Si       0.53133093       1.26780183       3.02977136       0.00000000
Si       1.40480073      -2.12709933      -2.34998575       0.00000000
Si       3.39776820       0.66886740       0.21719162       0.00000000
Si      -3.06506124       1.44653571      -0.82550082       0.00000000
Si      -1.22202693      -3.25412298       0.56956691       0.00000000
Si       3.19849263      -1.20008430      -1.14541821       0.00000000
