10
Lattice="16.28999089631971 0.0 0.0 0.0 16.28999089631971 0.0 0.0 0.0 34.529650657227435" Properties=species:S:1:pos:R:3:initial_magmoms:R:1 pbc="T T T"
Si      -1.35780408       1.35729909       1.36447444       0.00000000
Si       1.35676152      -1.36021500       1.36447444       0.00000000
Si       1.36506942       1.37011932      -1.36482319       0.00000000
Si      -1.36635633      -1.38948813      -1.36792050       0.00000000
Si       2.71454931      -2.71147050       0.00286596       0.00000000
Si      -2.71265967      -2.71399545       0.01018625       0.00000000
Si      -2.71533123       2.71303434       0.00196819       0.00000000
Si       2.71329498       2.71682991       0.01115308       0.00000000
Si       0.00061902       2.71414206       2.72221559       0.00000000
Si      -2.71469592      -0.00149868       2.72173217       0.00000000
