10
Lattice="16.28999089631971 0.0 0.0 0.0 16.28999089631971 0.0 0.0 0.0 34.529650657227435" Properties=species:S:1:pos:R:3:initial_magmoms:R:1 pbc="T T T"
Si       1.35827812      -1.33721005       1.39238822       0.00000000
Si      -1.34677174       1.40205749       1.39058923       0.00000000
Si      -1.80863539      -1.05639998      -1.15418737       0.00000000
Si       1.81451215       0.80910149      -1.34561230       0.00000000
Si       0.36931222       0.01521812      -3.17326773       0.00000000
Si      -0.11813508      -2.30529305      -2.72935429       0.00000000
Si       2.68185691       2.68140893      -0.07583061       0.00000000
Si       2.77669729      -2.63133740      -0.09054370       0.00000000
Si      -0.00241906      -2.67839921       2.76837140       0.00000000
Si      -2.77859086       2.69343095      -0.04802041       0.00000000
