10
Lattice="16.28999089631971 0.0 0.0 0.0 16.28999089631971 0.0 0.0 0.0 34.529650657227435" Properties=species:S:1:pos:R:3:initial_magmoms:R:1 pbc="T T T"
Si      -1.50161220       0.64031103      -1.62755396       0.00000000
Si       0.81625932       1.92608073       1.18755131       0.00000000
Si       1.77424164      -1.60969635      -0.29018531       0.00000000
Si      -1.95590935      -0.72651771       1.21660458       0.00000000
Si      -0.55682478      -2.02575924       2.63849495       0.00000000
Si       2.18505915       0.70781679       2.65253126       0.00000000
Si       2.96771220       0.23384295      -2.06038337       0.00000000
Si       0.77722848      -3.42572184       1.17196117       0.00000000
Si       3.43994301      -0.73811619       1.20150821       0.00000000
Si      -1.85784029       2.91889107      -1.55169228       0.00000000
