10
Lattice="16.28999089631971 0.0 0.0 0.0 16.28999089631971 0.0 0.0 0.0 34.529650657227435" Properties=species:S:1:pos:R:3:initial_magmoms:R:1 pbc="T T T"
Si      -1.42314327       1.20695868       1.42300223       0.00000000
Si      -1.35581670      -1.35570267      -1.35888063       0.00000000
Si       1.35208629       1.36365219      -1.35915687       0.00000000
Si       1.32628293      -1.33742529       1.44510122       0.00000000
Si       0.44567811       2.18191518       2.70650459       0.00000000
Si      -0.42463143      -2.32240014       2.67007579       0.00000000
Si      -2.21343633      -0.66031515       2.74921779       0.00000000
Si       2.13749235       0.34147098       2.88340009       0.00000000
Si      -0.00252495      -2.71050939      -2.71648366       0.00000000
Si       2.71365336       0.00184077      -2.71610384       0.00000000
