10
Lattice="16.28999089631971 0.0 0.0 0.0 16.28999089631971 0.0 0.0 0.0 34.529650657227435" Properties=species:S:1:pos:R:3:initial_magmoms:R:1 pbc="T T T"
Si       0.33909264       2.22044103      -0.63634729       0.00000000
Si      -2.14667991      -0.01238040       1.00156761       0.00000000
Si       1.40602248      -0.68142699       1.82389170       0.00000000
Si      -0.72137007      -1.28135511      -1.89944261       0.00000000
Si       1.98127125      -2.67310755       0.71006813       0.00000000
Si       2.41818534      -1.84961547      -1.53515460       0.00000000
Si      -1.14409557       2.07713790      -2.47232437       0.00000000
Si      -2.53459368       0.11424177      -2.44856796       0.00000000
Si      -0.37295955       3.32619419       1.29113342       0.00000000
Si      -1.82547369      -1.75790277       2.54597615       0.00000000
