10
Lattice="16.28999089631971 0.0 0.0 0.0 16.28999089631971 0.0 0.0 0.0 34.529650657227435" Properties=species:S:1:pos:R:3:initial_magmoms:R:1 pbc="T T T"
Si      -0.71205219       1.10575316       1.92748071       0.00000000
Si      -0.33909264      -2.22044103       0.63634729       0.00000000
Si       2.22739686       0.73480932      -0.09751179       0.00000000
Si      -1.48318821      -0.14330313      -1.83597708       0.00000000
Si      -2.62410723      -0.09681147       2.60654120       0.00000000
Si      -2.48577255      -2.23282143       1.63791489       0.00000000
Si      -0.61623441       3.42581048       1.39468790       0.00000000
Si       3.19508802       0.31755726       2.02530326       0.00000000
Si       3.35526759      -0.29460465      -1.87989882       0.00000000
Si      -1.06046271      -3.50179614      -1.26309533       0.00000000
