10
Lattice="16.28999089631971 0.0 0.0 0.0 16.28999089631971 0.0 0.0 0.0 34.529650657227435" Properties=species:S:1:pos:R:3:initial_magmoms:R:1 pbc="T T T"
Si       1.12787073      -1.02941397      -1.78238703       0.00000000
Si      -2.22739686      -0.73480932       0.09751179       0.00000000
Si       0.96769116      -0.41725206       2.12281505       0.00000000
Si       0.27999252       2.37349277      -0.18773782       0.00000000
Si      -2.93944905       0.37094384       2.02499249       0.00000000
Si       3.15977130      -0.86555286       1.52617688       0.00000000
Si       0.33480837       1.53979826       3.27703833       0.00000000
Si      -0.52251804       3.20376149       1.85700565       0.00000000
Si      -0.33585093      -0.73837683      -3.66753436       0.00000000
Si       1.60871895      -3.29455476      -1.24755698       0.00000000
