10
Lattice="16.28999089631971 0.0 0.0 0.0 16.28999089631971 0.0 0.0 0.0 34.529650657227435" Properties=species:S:1:pos:R:3:initial_magmoms:R:1 pbc="T T T"
Si      -1.35728280       1.35720680      -1.35687791       0.00000000
Si       1.35718506       1.35653240       1.35832816       0.00000000
Si       1.35773892      -1.35749793      -1.35715415       0.00000000
Si      -1.35821133      -1.35816582       1.35684338       0.00000000
Si      -2.70972747      -0.00230025       2.71482624       0.00000000
Si      -0.00488700      -2.71212546       2.71465359       0.00000000
Si      -2.71383255      -0.00146671      -2.71399753       0.00000000
Si      -0.00140094      -2.71344495      -2.71451547       0.00000000
Si      -2.71432125      -2.71505766       0.00006906       0.00000000
Si      -0.00244350       2.71455313      -2.71492983       0.00000000
