10
Lattice="16.28999089631971 0.0 0.0 0.0 16.28999089631971 0.0 0.0 0.0 34.529650657227435" Properties=species:S:1:pos:R:3:initial_magmoms:R:1 pbc="T T T"
Si       1.15766514      -1.51508403       1.31243823       0.00000000
Si       1.37011504       1.33996653      -1.36609733       0.00000000
Si      -1.34426709      -1.37161800      -1.36412914       0.00000000
Si      -1.39488012       1.25416710       1.48311838       0.00000000
Si      -0.83085516      -2.17626255       2.69310708       0.00000000
Si       0.19344375       2.40481125       2.91620328       0.00000000
Si      -2.71005327       2.69848737       0.03062782       0.00000000
Si      -2.64448602      -0.31568391       2.74593747       0.00000000
Si       0.01018125       2.70260874      -2.72446002       0.00000000
Si      -2.70734913      -0.01366731      -2.72629009       0.00000000
