10
Lattice="16.28999089631971 0.0 0.0 0.0 16.28999089631971 0.0 0.0 0.0 34.529650657227435" Properties=species:S:1:pos:R:3:initial_magmoms:R:1 pbc="T T T"
Si      -0.39237723      -1.02729627       2.07533675       0.00000000
Si       0.58267701      -1.70030133      -1.51775164       0.00000000
Si       2.14832587       0.99307098      -0.12095743       0.00000000
Si      -1.54153899       1.88501364      -0.16954068       0.00000000
Si      -2.74348035      -1.52829522       1.78062602       0.00000000
Si       2.26849720       1.66359996      -2.40333409       0.00000000
Si       0.77235777      -3.06468005       1.95175506       0.00000000
Si       0.36285975      -3.77992250      -0.28815010       0.00000000
Si       2.48868424      -0.76435938      -2.84897401       0.00000000
Si      -3.44246796       1.07665497      -1.38391464       0.00000000
