10
Lattice="16.28999089631971 0.0 0.0 0.0 16.28999089631971 0.0 0.0 0.0 34.529650657227435" Properties=species:S:1:pos:R:3:initial_magmoms:R:1 pbc="T T T"
Si      -1.53728730      -0.56697834      -1.63715524       0.00000000
Si       0.47337111      -1.95409043       1.22321356       0.00000000
Si       1.92533139       0.87034212      -1.09610984       0.00000000
Si      -0.60435900       1.53484380       1.72054439       0.00000000
Si       2.69208540       1.92197565       0.92656916       0.00000000
Si       1.47530385       1.46637693       2.98332895       0.00000000
Si       2.59885773      -2.75783903       0.53959515       0.00000000
Si      -0.20745315       3.75292278       0.80236594       0.00000000
Si      -0.90440451      -2.52402866      -2.79137852       0.00000000
Si       1.24537050       2.25122913      -2.94172070       0.00000000
