10
Lattice="16.28999089631971 0.0 0.0 0.0 16.28999089631971 0.0 0.0 0.0 34.529650657227435" Properties=species:S:1:pos:R:3:initial_magmoms:R:1 pbc="T T T"
Si      -2.32808535      -0.29830983      -0.48683382       0.00000000
Si       1.59185880      -0.21619194      -1.82848414       0.00000000
Si      -0.52963677      -1.62060171       1.86791703       0.00000000
Si       0.71534277       2.09741879       1.25460103       0.00000000
Si       2.16153639      -2.48351559      -1.83842869       0.00000000
Si       3.32558721       1.30231529      -1.24382777       0.00000000
Si      -1.98858546      -0.11255496       3.26619601       0.00000000
Si      -1.03096152      -3.69150054       0.41829242       0.00000000
Si      -2.82450681       0.47815369      -2.63098820       0.00000000
Si      -2.83178844      -2.59519983      -0.62982118       0.00000000
