10
Lattice="16.28999089631971 0.0 0.0 0.0 16.28999089631971 0.0 0.0 0.0 34.529650657227435" Properties=species:S:1:pos:R:3:initial_magmoms:R:1 pbc="T T T"
Si      -1.24960590      -1.56985101       1.26281909       0.00000000
Si       1.39488012      -1.25416710      -1.48311838       0.00000000
Si       1.58832387       1.15064415       1.43308489       0.00000000
Si      -1.31517315       1.44432027      -1.45249057       0.00000000
Si       0.56402496      -3.43042965       1.20998869       0.00000000
Si       2.55254526      -2.76925113      -0.17068016       0.00000000
Si       2.75535309       2.71632492       0.02631161       0.00000000
Si       0.05061303      -2.62578510      -2.84724753       0.00000000
Si      -2.75885811      -2.71568961      -0.15255208       0.00000000
Si      -2.66911650       0.08966016      -2.84876683       0.00000000
