10
Lattice="16.28999089631971 0.0 0.0 0.0 16.28999089631971 0.0 0.0 0.0 34.529650657227435" Properties=species:S:1:pos:R:3:initial_magmoms:R:1 pbc="T T T"
Si      -0.16891101       1.45044531       1.80721387       0.00000000
Si      -1.15522164      -2.06827614       0.16415405       0.00000000
Si      -1.00729215       0.74466477      -2.04398381       0.00000000
Si       2.37130272       0.37581030      -0.64014555       0.00000000
Si       0.96088194      -0.62196849      -2.96160979       0.00000000
Si      -0.26355591      -2.66442498      -1.98801122       0.00000000
Si      -2.33070804       2.21040639       1.59382051       0.00000000
Si      -1.89379395       3.03389847      -0.65140222       0.00000000
Si       0.34119405       0.12947292       3.67140169       0.00000000
Si      -3.43904706      -1.35472527       0.39049604       0.00000000
