10
Lattice="16.28999089631971 0.0 0.0 0.0 16.28999089631971 0.0 0.0 0.0 34.529650657227435" Properties=species:S:1:pos:R:3:initial_magmoms:R:1 pbc="T T T"
Si       1.54948104      -0.61484976      -1.56918950       0.00000000
Si       1.54384470       1.34250777       1.21705243       0.00000000
Si      -1.31569443      -1.58495184       1.19637261       0.00000000
Si      -1.39815441       0.97761177      -1.75454476       0.00000000
Si      -2.60525970       2.56140702      -0.41213479       0.00000000
Si      -2.58543477      -0.11205891       2.61398821       0.00000000
Si       0.14540454       2.61242730       2.63236835       0.00000000
Si      -2.63316447      -0.94226247      -2.58712417       0.00000000
Si       1.90570913      -2.89342980      -1.64505118       0.00000000
Si       0.14822724      -2.81351106       2.62257229       0.00000000
