10
Lattice="16.28999089631971 0.0 0.0 0.0 16.28999089631971 0.0 0.0 0.0 34.529650657227435" Properties=species:S:1:pos:R:3:initial_magmoms:R:1 pbc="T T T"
Si      -1.35329175       1.35480672       1.35760303       0.00000000
Si      -1.35553977      -1.35804843      -1.35701603       0.00000000
Si       1.35917244       1.35708732      -1.35736133       0.00000000
Si       1.35782037      -1.35650088       1.36537221       0.00000000
Si      -2.71208952       2.71308321      -0.00013812       0.00000000
Si       0.00252495       2.71050939       2.71648366       0.00000000
Si      -2.71349046      -0.00074934      -2.71441188       0.00000000
Si       2.71617831       2.71235016       0.00037983       0.00000000
Si       0.00221544       2.71420722      -2.71465359       0.00000000
Si      -2.71318095      -2.71730232      -0.00027624       0.00000000
