10
Lattice="16.28999089631971 0.0 0.0 0.0 16.28999089631971 0.0 0.0 0.0 34.529650657227435" Properties=species:S:1:pos:R:3:initial_magmoms:R:1 pbc="T T T"
Si       0.19927557       1.86895170       1.36260984       0.00000000
Si       1.84676472      -1.40066307       0.13425136       0.00000000
Si      -1.79369190      -0.92701503      -1.20456754       0.00000000
Si      -2.36700216      -0.99479772       1.06586185       0.00000000
Si      -1.01696841       1.12676301      -2.38924598       0.00000000
Si       3.15249523       0.31387572       1.17086658       0.00000000
Si      -0.88632261      -2.20561713       2.56786797       0.00000000
Si       1.72369377      -2.28165885      -2.05465348       0.00000000
Si      -0.64588221      -2.70464499      -2.19294481       0.00000000
Si      -3.19849263       1.20008430       1.14541821       0.00000000
