10
Lattice="16.28999089631971 0.0 0.0 0.0 16.28999089631971 0.0 0.0 0.0 34.529650657227435" Properties=species:S:1:pos:R:3:initial_magmoms:R:1 pbc="T T T"
Si       0.54651321       1.96314767       1.24044386       0.00000000
Si       1.39269726      -1.29228570      -1.44665505       0.00000000
Si      -0.88231527      -1.84083516       1.24482913       0.00000000
Si      -1.33141428       1.37956493      -1.45642695       0.00000000
Si       2.53503351       2.62432619      -0.14022499       0.00000000
Si       2.58054777      -2.80059309      -0.02144293       0.00000000
Si      -2.77636986       2.67788771      -0.12209691       0.00000000
Si       0.02409291      -2.65909815      -2.82083233       0.00000000
Si      -2.68074756       0.05072706      -2.82065968       0.00000000
Si      -2.22148359      -1.01004516       3.08046092       0.00000000
