10
Lattice="16.28999089631971 0.0 0.0 0.0 16.28999089631971 0.0 0.0 0.0 34.529650657227435" Properties=species:S:1:pos:R:3:initial_magmoms:R:1 pbc="T T T"
Si      -1.68164928      -0.36966897      -1.56112091       0.00000000
Si       1.96417882       0.35277624      -1.25511897       0.00000000
Si       0.04010598      -1.90482228       1.38902503       0.00000000
Si      -0.13059693       2.05933293       1.21261295       0.00000000
Si      -0.56672910      -0.69198291       3.30673384       0.00000000
Si       0.94641642       1.11249297       3.12224182       0.00000000
Si      -0.13468572      -0.99329904      -3.34654655       0.00000000
Si      -2.16249750       1.89547182      -2.09595097       0.00000000
Si       3.24611549       1.59174477       0.30213461       0.00000000
Si       2.97892691      -1.74001635      -1.52286203       0.00000000
