10
Lattice="16.28999089631971 0.0 0.0 0.0 16.28999089631971 0.0 0.0 0.0 34.529650657227435" Properties=species:S:1:pos:R:3:initial_magmoms:R:1 pbc="T T T"
Si       1.68164928       0.36966897       1.56112091       0.00000000
Si      -1.75702311      -1.51031106       0.44626145       0.00000000
Si      -0.48084822       2.26514079      -0.53483006       0.00000000
Si       1.54696356      -0.62363007      -1.78542564       0.00000000
Si       3.64582810       0.72244521       0.30600194       0.00000000
Si       1.72175526      -1.53515331       2.95014594       0.00000000
Si      -1.60871895       3.29455476       1.24755698       0.00000000
Si       1.77761367       3.41642025      -1.00895696       0.00000000
Si       1.55105235       2.42900190       2.77373386       0.00000000
Si      -0.87052131      -3.79954476      -0.94632013       0.00000000
