10
Lattice="16.28999089631971 0.0 0.0 0.0 16.28999089631971 0.0 0.0 0.0 34.529650657227435" Properties=species:S:1:pos:R:3:initial_magmoms:R:1 pbc="T T T"
Si       1.96392959       1.09576674      -0.61241823       0.00000000
Si       0.62219559      -1.42265457       1.74253979       0.00000000
Si      -0.23416875      -1.16133039      -2.01798297       0.00000000
Si      -2.12548662       0.80374860       0.68361841       0.00000000
Si      -1.32019047      -1.40015808       3.08957675       0.00000000
Si       1.28284143       2.43581016      -2.46807722       0.00000000
Si      -1.88986806       0.86716557       3.09952129       0.00000000
Si       3.44628701      -0.51984648      -1.49282122       0.00000000
Si       1.90300499      -1.81835496      -2.76910688       0.00000000
Si      -2.59885773       2.75783903      -0.53959515       0.00000000
