10
Lattice="16.28999089631971 0.0 0.0 0.0 16.28999089631971 0.0 0.0 0.0 34.529650657227435" Properties=species:S:1:pos:R:3:initial_magmoms:R:1 pbc="T T T"
Si      -0.18409329      -1.73117088      -1.49851862       0.00000000
Si      -0.00856854      -0.80278749       2.23410418       0.00000000
Si      -1.86481404       1.40928048      -0.50945075       0.00000000
Si       1.75150080       1.23061176      -1.11499757       0.00000000
Si      -1.05735132       1.12940199       3.04278905       0.00000000
Si      -0.82003860      -0.45859608      -3.32834942       0.00000000
Si       0.74523492       1.29829671      -3.34530348       0.00000000
Si      -2.93702347       1.56476853       1.68580755       0.00000000
Si      -2.82035612       0.46778364      -2.50571456       0.00000000
Si       2.21744367      -0.96744681       2.96920632       0.00000000
