10
Lattice="16.28999089631971 0.0 0.0 0.0 16.28999089631971 0.0 0.0 0.0 34.529650657227435" Properties=species:S:1:pos:R:3:initial_magmoms:R:1 pbc="T T T"
Si      -1.35693048       1.35420399       1.36012370       0.00000000
Si       1.35792951      -1.35900954       1.35905328       0.00000000
Si      -1.35271285      -1.35252612      -1.37498872       0.00000000
Si       1.35990060       1.34439741      -1.38564458       0.00000000
Si      -2.70985357       2.71080261      -0.00127760       0.00000000
Si      -2.71213417      -2.71635750      -0.00376373       0.00000000
Si       2.71661325       2.71208952      -0.00403997       0.00000000
Si       0.00082265       2.71332756       2.71627649       0.00000000
Si      -2.71376317      -0.00162900       2.71620743       0.00000000
Si       2.71544037      -2.71544526      -0.00469604       0.00000000
