10
Lattice="16.28999089631971 0.0 0.0 0.0 16.28999089631971 0.0 0.0 0.0 34.529650657227435" Properties=species:S:1:pos:R:3:initial_magmoms:R:1 pbc="T T T"
Si       1.32979664       1.34496756       1.36737493       0.00000000
Si      -1.35981172       1.35363384      -1.35591108       0.00000000
Si       1.35543384      -1.36114353      -1.35787927       0.00000000
Si      -1.35119431      -1.36544409       1.39520584       0.00000000
Si       2.56922943      -0.10888236       2.74593747       0.00000000
Si      -0.16492393       2.57395032       2.80042529       0.00000000
Si       2.70464820      -2.71122615      -0.00245161       0.00000000
Si      -0.00134673       2.71265967      -2.71344505       0.00000000
Si       2.71259772      -0.00268785      -2.71392847       0.00000000
Si       2.71603491       2.71428867       0.00607722       0.00000000
