10
Lattice="16.28999089631971 0.0 0.0 0.0 16.28999089631971 0.0 0.0 0.0 34.529650657227435" Properties=species:S:1:pos:R:3:initial_magmoms:R:1 pbc="T T T"
Si      -1.35623209      -1.35861695       1.35598014       0.00000000
Si      -1.35605291       1.35772263      -1.35749944       0.00000000
Si       1.35896067       1.35656604       1.35598014       0.00000000
Si       1.35780408      -1.35781874      -1.36202283       0.00000000
Si      -2.71365605       2.71178001      -0.00113948       0.00000000
Si      -0.00781920       2.68991883      -2.73672150       0.00000000
Si       0.00117288       2.71448415       2.71351411       0.00000000
Si      -2.71411586      -0.00070047       2.71389394       0.00000000
Si      -2.71301314      -2.71659092      -0.00086324       0.00000000
Si       2.71700910      -0.00053757       2.71268540       0.00000000
