10
Lattice="16.28999089631971 0.0 0.0 0.0 16.28999089631971 0.0 0.0 0.0 34.529650657227435" Properties=species:S:1:pos:R:3:initial_magmoms:R:1 pbc="T T T"
Si       0.17261861       1.60187715      -1.71325863       0.00000000
Si      -0.69163335      -1.37261169       1.88559622       0.00000000
Si       1.46086928       1.42544016       1.46633696       0.00000000
Si       1.15658348      -0.68093829      -2.39608286       0.00000000
Si      -1.65274335       2.17215747      -0.35734755       0.00000000
Si      -2.10205413      -2.37039048      -0.43586802       0.00000000
Si       3.16561778       2.27893842      -0.47467937       0.00000000
Si       0.44612120       3.51823275       1.73408003       0.00000000
Si       0.56198871      -3.46895550       2.17985806       0.00000000
Si       0.37263212      -0.16410546       4.13358132       0.00000000
