10
Lattice="16.28999089631971 0.0 0.0 0.0 16.28999089631971 0.0 0.0 0.0 34.529650657227435" Properties=species:S:1:pos:R:3:initial_magmoms:R:1 pbc="T T T"
Si      -0.99546561      -2.19936177       0.15700641       0.00000000
Si       0.16306290       1.03909023      -2.19139097       0.00000000
Si       2.05799715      -0.35210835       1.35145675       0.00000000
Si      -0.78871293       1.75381398       1.68000656       0.00000000
Si      -2.30342066       0.03313386       2.32553874       0.00000000
Si      -2.87513776      -1.76399523      -1.19997509       0.00000000
Si      -1.94719257      -2.24544618       2.24967706       0.00000000
Si       2.03154219       0.15705189      -3.29989697       0.00000000
Si       1.47823605       0.53574552       3.56391082       0.00000000
Si      -3.64959661       0.55291518      -1.38015091       0.00000000
