10
Lattice="16.28999089631971 0.0 0.0 0.0 16.28999089631971 0.0 0.0 0.0 34.529650657227435" Properties=species:S:1:pos:R:3:initial_magmoms:R:1 pbc="T T T"
Si       1.35360126      -1.35998694      -1.36202283       0.00000000
Si      -1.36201342       1.35560493      -1.36305872       0.00000000
Si       1.36182771       1.35860229       1.38301687       0.00000000
Si      -1.38623827      -1.36932111       1.36129771       0.00000000
Si       2.71135647       2.71412577      -0.00680234       0.00000000
Si      -2.71484972       2.71173730      -0.00469604       0.00000000
Si      -2.71603491      -2.71428867      -0.00607722       0.00000000
Si       2.71220355      -0.00083079      -2.71924604       0.00000000
Si      -0.00276930       2.71332568      -2.71938416       0.00000000
Si       2.71697652      -2.71573848      -0.00062153       0.00000000
