10
Lattice="16.28999089631971 0.0 0.0 0.0 16.28999089631971 0.0 0.0 0.0 34.529650657227435" Properties=species:S:1:pos:R:3:initial_magmoms:R:1 pbc="T T T"
Si       0.09673491      -1.14950385       2.01905339       0.00000000
Si       2.42856207       0.01418859      -0.12617141       0.00000000
Si      -1.77147953       1.54447119       0.70409450       0.00000000
Si       1.17103923      -0.06107121      -2.41414187       0.00000000
Si      -2.00212964      -2.49557913      -0.07237419       0.00000000
Si      -0.17676768      -3.06585945      -1.42828527       0.00000000
Si       2.81623149      -2.38879818      -0.18970601       0.00000000
Si       1.37867157       0.08946468       3.57630698       0.00000000
Si       1.11148299      -3.24229644       1.75131033       0.00000000
Si      -2.46268052      -1.98700533      -2.36566222       0.00000000
