10
Lattice="16.290000149 0.0 0.0 0.0 16.290000149 0.0 0.0 0.0 29.1751946751" Properties=species:S:1:pos:R:3:initial_magmoms:R:1 pbc="T T T"
Si       1.15953850       0.14032206      -2.04754434       0.00000000
Si      -0.91696411      -1.83283679       1.16832067       0.00000000
Si       1.55846431       0.75738727       1.60276849       0.00000000
Si      -1.92305081       1.50517972      -0.30245924       0.00000000
Si      -1.98234641      -0.38214711       2.64464387       0.00000000
H        1.85562650      -2.82400185      -0.13195941       0.00000000
Si      -0.08117307       0.87154759       3.27689952       0.00000000
H       -2.83937961       0.53098884       1.79479963       0.00000000
Si       2.38964528       2.71392869       0.60523941       0.00000000
Si       2.68943015       1.98435008      -1.61067497       0.00000000
