10
Lattice="16.290000149 0.0 0.0 0.0 16.290000149 0.0 0.0 0.0 29.1751946751" Properties=species:S:1:pos:R:3:initial_magmoms:R:1 pbc="T T T"
Si      -1.38154840       1.45204826      -1.15390812       0.00000000
Si       1.52774137      -1.26381079      -1.21392150       0.00000000
Si       0.84944206       1.66225768       1.39314472       0.00000000
Si      -0.92054791      -1.73133380       1.27941981       0.00000000
H        0.23705208       2.96826609       0.95300773       0.00000000
Si       2.56070657      -2.08906220       0.73953283       0.00000000
Si       0.11385081      -2.65803932      -2.51192591       0.00000000
Si      -2.61337425       0.09037904      -2.59799274       0.00000000
Si       0.09863595       1.07643506       3.54787872       0.00000000
Si       0.73168165      -3.38524122       1.37383074       0.00000000
