10
Lattice="16.290000149 0.0 0.0 0.0 16.290000149 0.0 0.0 0.0 29.1751946751" Properties=species:S:1:pos:R:3:initial_magmoms:R:1 pbc="T T T"
Si       1.34783950      -1.33558453       1.37555208       0.00000000
Si      -1.27151694       1.36125757       1.42310765       0.00000000
Si       1.34239864       1.36783873      -1.36347355       0.00000000
Si      -1.37933459      -1.36260964      -1.33281042       0.00000000
Si       2.66311040       0.13180239       2.65243365       0.00000000
Si       0.01702305      -2.69951692      -2.68175472       0.00000000
Si      -2.66321466       2.71704170       0.07290881       0.00000000
Si      -2.68369119       0.01728369      -2.70772064       0.00000000
Si      -0.06200463      -2.62972079       2.76437887       0.00000000
Si       2.72035346       0.02192634      -2.72108288       0.00000000
