10
Lattice="16.290000149 0.0 0.0 0.0 16.290000149 0.0 0.0 0.0 29.1751946751" Properties=species:S:1:pos:R:3:initial_magmoms:R:1 pbc="T T T"
Si       1.35514882      -1.36578619       1.33788690       0.00000000
Si      -1.35544204      -1.36850662      -1.33744927       0.00000000
Si       1.37490859       1.33578001      -1.36280252       0.00000000
Si      -1.37795482       1.34591239       1.35760933       0.00000000
Si       2.64981287       0.07016103       2.65088736       0.00000000
Si      -2.68433301      -0.00855225      -2.71168847       0.00000000
Si       0.02819799      -2.72319607      -2.67311886       0.00000000
Si      -2.70762120       2.70472646      -0.00738132       0.00000000
Si       0.03093471       2.71816571      -2.70626188       0.00000000
Si      -2.70333041      -2.72144326       0.03932816       0.00000000
