10
Lattice="16.290000149 0.0 0.0 0.0 16.290000149 0.0 0.0 0.0 29.1751946751" Properties=species:S:1:pos:R:3:initial_magmoms:R:1 pbc="T T T"
Si      -1.43536078       1.32084208      -1.28026589       0.00000000
Si      -1.37870416      -1.31872438       1.36344437       0.00000000
Si       1.33485148       1.40366044       1.34025009       0.00000000
Si       1.34579836      -1.28339137      -1.45797200       0.00000000
Si      -0.08019567       2.66154167      -2.59444795       0.00000000
Si       2.68661198      -2.61892703      -0.03673157       0.00000000
Si      -0.02236617      -2.68882742       2.70223571       0.00000000
Si      -2.75149506      -2.64601730      -0.00070020       0.00000000
Si       2.69889464       0.06411744       2.70407374       0.00000000
Si      -2.74732482       0.06085944       2.68648110       0.00000000
