10
Lattice="16.290000149 0.0 0.0 0.0 16.290000149 0.0 0.0 0.0 29.1751946751" Properties=species:S:1:pos:R:3:initial_magmoms:R:1 pbc="T T T"
Si      -1.48717927       1.79978438      -0.11681748       0.00000000
Si       1.12593223      -1.11843883      -1.75100766       0.00000000
Si      -1.66172663      -1.52282179       0.73293924       0.00000000
Si       1.86210992       0.84333331       1.25097400       0.00000000
H       -0.75168577       0.54986896       2.49903048       0.00000000
H       -1.40335093       0.97143787       2.45340047       0.00000000
Si       2.46832598      -2.53268777      -0.37930671       0.00000000
H        1.36855549       3.21859452      -0.96453194       0.00000000
H        0.79602715       3.33397659       1.36808323       0.00000000
Si       2.55440234       2.70488936      -0.16685294       0.00000000
