10
Lattice="16.290000149 0.0 0.0 0.0 16.290000149 0.0 0.0 0.0 29.1751946751" Properties=species:S:1:pos:R:3:initial_magmoms:R:1 pbc="T T T"
Si       1.38154840      -1.45204826       1.15390812       0.00000000
Si      -1.23182585      -1.36166922      -1.44408461       0.00000000
Si       1.40984413       1.29413626      -1.38882679       0.00000000
Si      -1.21598759       1.28597497       1.60708642       0.00000000
H        1.61860048       1.51621783       2.10691586       0.00000000
Si       2.23099045       0.21020942       2.54705285       0.00000000
Si      -2.50483839       2.63332088       0.10561420       0.00000000
Si      -2.54411358      -2.69694636      -0.07675994       0.00000000
Si       0.06200463       2.62972079      -2.76437887       0.00000000
Si      -2.70121434      -0.06898489      -2.71551042       0.00000000
