10
Lattice="16.290000149 0.0 0.0 0.0 16.290000149 0.0 0.0 0.0 29.1751946751" Properties=species:S:1:pos:R:3:initial_magmoms:R:1 pbc="T T T"
H       -0.59792446      -0.09472635      -1.40096367       0.00000000
Si      -1.71563024       0.43852680       1.52656289       0.00000000
Si       0.47770425      -2.02667150       1.06574069       0.00000000
H        1.51728319      -0.84844837      -1.69872571       0.00000000
Si       1.89967466       1.49591071       0.31827220       0.00000000
Si       0.80110963      -0.93006127      -3.02514676       0.00000000
Si      -2.55725309       2.28408608       0.40034202       0.00000000
Si      -0.34236693       1.46285830       3.16334966       0.00000000
Si       2.07347267      -1.21331179       2.62483391       0.00000000
Si       0.92180224       2.93949795       1.83561572       0.00000000
