10
Lattice="16.290000149 0.0 0.0 0.0 16.290000149 0.0 0.0 0.0 29.1751946751" Properties=species:S:1:pos:R:3:initial_magmoms:R:1 pbc="T T T"
Si       1.44679636      -1.19004967      -1.36055194       0.00000000
Si      -1.33868452      -1.46627920       1.23577197       0.00000000
Si      -1.35627120       1.24426279      -1.45779287       0.00000000
Si       1.42874704       1.36072000       1.27456039       0.00000000
Si      -2.70047477      -0.01011609       2.52467956       0.00000000
Si       0.09345573      -2.53705349      -2.70549924       0.00000000
Si       0.09185931       2.67563252       2.68761135       0.00000000
Si      -2.53966006       2.83739288      -0.18636706       0.00000000
Si       2.75687076      -0.03319902       2.64750421       0.00000000
Si       2.72670167      -2.68455944      -0.02113830       0.00000000
