10
Lattice="16.290000149 0.0 0.0 0.0 16.290000149 0.0 0.0 0.0 29.1751946751" Properties=species:S:1:pos:R:3:initial_magmoms:R:1 pbc="T T T"
Si       1.37652130       1.34061814       1.33304382       0.00000000
Si       1.37793853      -1.36653553      -1.31230026       0.00000000
Si      -1.35379675      -1.35138583       1.36166469       0.00000000
Si      -1.35123922       1.37611405      -1.34202978       0.00000000
Si      -0.05662404       2.66387114       2.61532280       0.00000000
Si      -0.00004887      -2.70225038      -2.65739343       0.00000000
Si       2.73432540      -0.01181025      -2.67046392       0.00000000
Si      -2.71627607       0.02046024      -2.68910687       0.00000000
Si       0.00988803      -2.67656105       2.74267253       0.00000000
Si       2.72567541       2.69801498      -0.02007253       0.00000000
