10
Lattice="16.290000149 0.0 0.0 0.0 16.290000149 0.0 0.0 0.0 29.1751946751" Properties=species:S:1:pos:R:3:initial_magmoms:R:1 pbc="T T T"
H       -0.89453278      -0.07556931       1.22705034       0.00000000
Si      -0.89024851       1.41946174      -1.59372418       0.00000000
Si       0.33570432      -2.11851452      -0.94081250       0.00000000
Si       1.88688701       1.34278471       0.38820514       0.00000000
H        0.97055821       0.36859383       2.48546401       0.00000000
H       -2.17940654      -1.83210374       0.78066986       0.00000000
Si       0.28597095       2.88482871       1.45450016       0.00000000
Si      -0.32868333       0.38424852      -3.60377840       0.00000000
Si      -1.72509473      -2.81575911      -1.84197592       0.00000000
Si       1.55794303      -3.44720838       0.56789516       0.00000000
