10
Lattice="16.290000149 0.0 0.0 0.0 16.290000149 0.0 0.0 0.0 29.1751946751" Properties=species:S:1:pos:R:3:initial_magmoms:R:1 pbc="T T T"
Si       1.40066145       1.39422853      -1.26624429       0.00000000
Si       1.36695744      -1.34664544       1.37383074       0.00000000
Si      -1.28244688       1.34592868       1.45531706       0.00000000
Si      -1.39167263      -1.29152008      -1.42917609       0.00000000
Si      -2.69396040      -2.64561005       0.00697287       0.00000000
Si      -2.60027661       2.78089362       0.17904817       0.00000000
Si       2.73754919       0.07931601      -2.67929525       0.00000000
Si       2.70387776       2.71525958       0.16539418       0.00000000
Si       0.12133281       2.76778668      -2.65571002       0.00000000
Si       2.71796861      -2.71634123       0.01499605       0.00000000
