10
Lattice="16.290000149 0.0 0.0 0.0 16.290000149 0.0 0.0 0.0 29.1751946751" Properties=species:S:1:pos:R:3:initial_magmoms:R:1 pbc="T T T"
Si       1.42475599      -1.35835795      -1.27247612       0.00000000
Si       1.35609364       1.34817670       1.35708418       0.00000000
Si      -1.32512635      -1.38712609       1.38135794       0.00000000
Si      -1.34081362       1.33553566      -1.42124043       0.00000000
Si       0.03730410      -2.70265763      -2.55108777       0.00000000
Si      -2.68661198       2.61892703       0.03673157       0.00000000
Si       2.69860142       2.70213635      -0.02587840       0.00000000
Si       2.70313004      -0.03101616       2.71104661       0.00000000
Si       0.01228266       2.68304447       2.74080531       0.00000000
Si      -2.71225244      -0.07066602      -2.73434009       0.00000000
