10
Lattice="16.290000149 0.0 0.0 0.0 16.290000149 0.0 0.0 0.0 29.1751946751" Properties=species:S:1:pos:R:3:initial_magmoms:R:1 pbc="T T T"
Si      -2.06733134       0.72183923      -0.85004847       0.00000000
Si      -0.78418432      -1.50106976       1.70794507       0.00000000
Si       1.04648590      -0.67218568      -2.07094284       0.00000000
Si       0.91497673       2.08400090       0.81509659       0.00000000
H       -1.39893634       2.29104680       1.71909000       0.00000000
Si      -1.31652523       1.30766184      -3.00478247       0.00000000
Si      -2.68465718       2.23917944       0.90434351       0.00000000
H        0.38854908      -3.59234740      -0.53694028       0.00000000
Si      -2.32547897      -2.81045997       0.51555487       0.00000000
Si      -3.35434235      -1.26432718      -0.96426936       0.00000000
