10
Lattice="16.290000149 0.0 0.0 0.0 16.290000149 0.0 0.0 0.0 29.1751946751" Properties=species:S:1:pos:R:3:initial_magmoms:R:1 pbc="T T T"
Si       1.38196216       1.35975889      -1.30970366       0.00000000
Si       1.38144088      -1.34586352       1.33707000       0.00000000
Si      -1.31924566       1.37086867       1.38774731       0.00000000
Si      -1.33183783      -1.34539111      -1.41382993       0.00000000
Si       0.00508248       2.71651391      -2.62226650       0.00000000
Si       0.01264104      -2.68925096       2.67985833       0.00000000
Si      -2.67844744      -2.69289992      -0.04420042       0.00000000
Si      -2.66737187       2.73061942       0.03264704       0.00000000
Si       2.70933653       0.00863370      -2.69176181       0.00000000
Si      -2.69488730       0.02329470       2.73928820       0.00000000
