10
Lattice="16.290000149 0.0 0.0 0.0 16.290000149 0.0 0.0 0.0 29.1751946751" Properties=species:S:1:pos:R:3:initial_magmoms:R:1 pbc="T T T"
Si       1.41693679      -1.33713127       1.26010000       0.00000000
Si      -1.49029066       1.23760670       1.28379901       0.00000000
Si      -1.03493629      -1.85026057      -0.95320904       0.00000000
Si       0.86131747       1.73381639      -1.36914462       0.00000000
H       -1.96517675       0.77848933      -2.13543753       0.00000000
Si      -1.85326445      -0.63411432      -2.68763644       0.00000000
Si      -0.07390773       2.66869950       2.51996076       0.00000000
Si       2.64854225      -2.54149415      -0.33554100       0.00000000
Si      -0.04261464      -2.77351262       2.47835693       0.00000000
Si      -0.83901646       3.40440478      -1.25131243       0.00000000
