10
Lattice="16.290000149 0.0 0.0 0.0 16.290000149 0.0 0.0 0.0 29.1751946751" Properties=species:S:1:pos:R:3:initial_magmoms:R:1 pbc="T T T"
Si       1.33625242       1.33572300      -1.33130206       0.00000000
Si      -1.33191928       1.41834588       1.28569248       0.00000000
Si       1.43024572      -1.34689794       1.26553242       0.00000000
Si      -1.36109467      -1.28319077      -1.40936613       0.00000000
Si       0.04898403      -2.68968265       2.59988912       0.00000000
Si      -2.68377752       0.04567553       2.62074939       0.00000000
Si       0.05222574       2.76828190       2.61240528       0.00000000
Si       2.77667940       0.04146782       2.60455715       0.00000000
Si      -0.04062726      -2.76922672      -2.62020965       0.00000000
Si      -2.71430498      -2.67616195      -0.09937071       0.00000000
