10
Lattice="16.290000149 0.0 0.0 0.0 16.290000149 0.0 0.0 0.0 29.1751946751" Properties=species:S:1:pos:R:3:initial_magmoms:R:1 pbc="T T T"
Si      -0.34437060       0.88358590       2.13501157       0.00000000
Si      -1.85474684      -0.93142963      -1.10772379       0.00000000
Si       1.05669973       1.76254544      -1.18022415       0.00000000
Si       1.60173055      -1.77634307      -0.08971372       0.00000000
Si       2.13824171       0.34187823      -2.67892473       0.00000000
Si      -0.67165300      -2.38352024      -2.51927806       0.00000000
Si       1.27713601       2.57077379       2.21069203       0.00000000
Si       2.22971006      -2.17797302       2.05851421       0.00000000
Si       3.43381800      -0.95193874      -1.25301626       0.00000000
Si      -3.15698574      -2.16849224       0.39138524       0.00000000
