10
Lattice="16.290000149 0.0 0.0 0.0 16.290000149 0.0 0.0 0.0 29.1751946751" Properties=species:S:1:pos:R:3:initial_magmoms:R:1 pbc="T T T"
Si      -1.30256470       1.43109280       1.30008548       0.00000000
Si       1.26416917       1.47663964      -1.32773393       0.00000000
Si       1.45614682      -1.41206608       1.21791850       0.00000000
Si      -1.37326330      -1.02433150      -1.63678677       0.00000000
Si       0.34236693      -1.46285830      -3.16334966       0.00000000
Si      -0.41578596       2.41461785      -2.64242656       0.00000000
Si       2.24204159       0.03305241      -2.84507746       0.00000000
Si      -2.21488616       0.82122778      -2.76300764       0.00000000
Si       2.41583960      -2.67617009      -0.53851574       0.00000000
Si      -2.59517621      -0.05953995       2.57423246       0.00000000
