10
Lattice="16.290000149 0.0 0.0 0.0 16.290000149 0.0 0.0 0.0 29.1751946751" Properties=species:S:1:pos:R:3:initial_magmoms:R:1 pbc="T T T"
Si       1.91787059      -1.05787750       0.78274130       0.00000000
Si      -1.25662690      -1.31728272      -1.47069239       0.00000000
Si       1.16105347       1.44141252      -1.50237665       0.00000000
Si      -0.97451668       0.40562915       2.15070783       0.00000000
H       -1.88064794       1.96933884       0.65332013       0.00000000
Si       0.04562829       2.55854815       2.54083853       0.00000000
Si      -2.60377733      -2.60810233      -0.10109205       0.00000000
Si       3.66406086      -0.73565152      -0.71067857       0.00000000
Si       2.68112225       0.12319964      -2.69896808       0.00000000
Si       2.60022611       2.77263133      -0.29230628       0.00000000
