10
Lattice="16.290000149 0.0 0.0 0.0 16.290000149 0.0 0.0 0.0 29.1751946751" Properties=species:S:1:pos:R:3:initial_magmoms:R:1 pbc="T T T"
Si      -1.35390427       1.40965516      -1.31431334       0.00000000
Si       1.17405289       1.46579050       1.45183354       0.00000000
Si      -1.48748064      -1.19612584       1.43930863       0.00000000
Si       1.00629847      -1.23861016      -1.84460168       0.00000000
Si      -2.46466888      -0.29281275      -2.56630847       0.00000000
Si      -1.04840812      -2.23925600      -2.57937896       0.00000000
Si       2.39596580       0.50099895      -2.75918569       0.00000000
Si      -0.13046661      -2.54027891       2.81785700       0.00000000
Si       2.54710442       0.11225439       2.81284179       0.00000000
Si       2.46666440       2.95642326       0.17768656       0.00000000
