10
Lattice="16.290000149 0.0 0.0 0.0 16.290000149 0.0 0.0 0.0 29.1751946751" Properties=species:S:1:pos:R:3:initial_magmoms:R:1 pbc="T T T"
Si       1.34658028       1.01884177      -1.63541554       0.00000000
Si       1.43443225      -1.62706265       0.92820882       0.00000000
Si      -1.83420515      -1.18612704      -1.00683597       0.00000000
Si      -0.10707417       1.73154557       1.80614878       0.00000000
H       -2.25147350       1.48336741       0.49189378       0.00000000
Si       2.77382865       2.29060208      -0.23162187       0.00000000
Si       0.63081397       0.40744548       3.59505501       0.00000000
Si       2.62677881      -0.48138091       2.62130372       0.00000000
Si      -2.89803990       2.32215581      -0.58846368       0.00000000
Si       0.14410134      -3.06343227       2.21063368       0.00000000
