10
Lattice="16.290000149 0.0 0.0 0.0 16.290000149 0.0 0.0 0.0 29.1751946751" Properties=species:S:1:pos:R:3:initial_magmoms:R:1 pbc="T T T"
Si       0.59792446       0.09472635       1.40096367       0.00000000
H        2.11520765      -0.75372202      -0.29776204       0.00000000
Si       1.39903408      -0.83533492      -1.62418309       0.00000000
Si      -0.47200275      -2.29977335      -1.78490924       0.00000000
Si      -1.11770578       0.53325315       2.92752656       0.00000000
H       -3.11171583      -0.63980605       0.73495233       0.00000000
Si       1.07562871      -1.93194515       2.46670436       0.00000000
Si       1.05762826       1.11369844      -2.99763455       0.00000000
H       -1.70815313      -2.67175550       1.19384897       0.00000000
Si       2.49759911       1.59063706       1.71923587       0.00000000
