10
Lattice="16.290000149 0.0 0.0 0.0 16.290000149 0.0 0.0 0.0 29.1751946751" Properties=species:S:1:pos:R:3:initial_magmoms:R:1 pbc="T T T"
Si      -1.35394336      -1.35469270       1.33514443       0.00000000
Si      -1.37600002       1.34536668      -1.33680742       0.00000000
Si       1.30686526       1.31382109       1.44723553       0.00000000
Si       1.35242839      -1.38598579      -1.33689495       0.00000000
Si       0.04152321      -2.80451901       2.52905175       0.00000000
Si       2.67397094       2.67265145       0.07063315       0.00000000
Si      -0.01060479       2.69272073      -2.68575172       0.00000000
Si       2.71259453      -0.02249649      -2.67892473       0.00000000
Si      -2.72688086      -0.02322954      -2.68928192       0.00000000
Si      -2.72451881       2.69617421       0.03673157       0.00000000
