10
Lattice="16.290000149 0.0 0.0 0.0 16.290000149 0.0 0.0 0.0 29.1751946751" Properties=species:S:1:pos:R:3:initial_magmoms:R:1 pbc="T T T"
Si       1.83223406       1.01708245      -0.94810047       0.00000000
Si       1.39921327      -1.36462960       1.26150624       0.00000000
Si      -1.32046741       1.48603595       1.21084352       0.00000000
Si      -1.31238757      -1.18312642      -1.54652280       0.00000000
Si       1.01390590       2.23322870      -2.68252786       0.00000000
Si      -2.67367772       0.09306477       2.52083893       0.00000000
Si      -2.63399528      -2.58517415      -0.20442475       0.00000000
Si       0.04404816      -2.70532919       2.57568830       0.00000000
Si       2.73880515      -2.52405407      -0.28836471       0.00000000
Si       2.82455571       0.09383040       2.48346551       0.00000000
