10
Lattice="16.290000149 0.0 0.0 0.0 16.290000149 0.0 0.0 0.0 29.1751946751" Properties=species:S:1:pos:R:3:initial_magmoms:R:1 pbc="T T T"
Si       0.26782715      -0.82160245      -2.15423802       0.00000000
Si      -2.26880280       0.48902580      -0.09902061       0.00000000
Si       1.28701101       1.98616641       0.11422089       0.00000000
Si       1.02886338      -1.54613278       1.47982422       0.00000000
Si      -2.56858768       1.21860441       2.11689378       0.00000000
Si       3.35434235       1.26432718       0.96426936       0.00000000
Si       2.57015803      -0.23674257       2.67221443       0.00000000
Si       1.18837506       0.90973135      -3.43365784       0.00000000
Si       1.92005671      -2.47550987      -2.05982709       0.00000000
Si       2.38474525      -2.89919649       0.15203194       0.00000000
