10
Lattice="16.290000149 0.0 0.0 0.0 16.290000149 0.0 0.0 0.0 29.1751946751" Properties=species:S:1:pos:R:3:initial_magmoms:R:1 pbc="T T T"
Si       1.30256470      -1.43109280      -1.30008548       0.00000000
Si       1.41231043       1.29510388       1.34562912       0.00000000
Si      -1.29261151      -1.49063275       1.27414698       0.00000000
Si      -1.27990531       1.49450977      -1.33941364       0.00000000
Si       2.56673387       0.04554684      -2.62781941       0.00000000
Si      -2.67745700      -0.12114873       2.62730418       0.00000000
Si       0.03016908       2.65136042       2.66864251       0.00000000
Si      -2.63324594       0.14750595      -2.68436094       0.00000000
Si      -2.72670167       2.68455944       0.02113830       0.00000000
Si      -0.07069860      -2.45542430      -2.93687225       0.00000000
