10
Lattice="16.290000149 0.0 0.0 0.0 16.290000149 0.0 0.0 0.0 29.1751946751" Properties=species:S:1:pos:R:3:initial_magmoms:R:1 pbc="T T T"
Si       0.85703320      -0.91313596       0.84984425       0.00000000
H       -1.86509099      -0.44416314      -1.25841367       0.00000000
Si       0.91632880       0.97419088      -2.09725887       0.00000000
Si      -0.97055821      -0.36859383      -2.48546401       0.00000000
Si      -0.68458726       2.51623487      -1.03096385       0.00000000
Si      -1.42985476       2.15233908       1.21969819       0.00000000
Si       1.92241550      -2.36382563      -0.62647896       0.00000000
Si       2.75820654       0.34055874       1.48209989       0.00000000
Si      -0.51598575      -2.12520971       2.29314113       0.00000000
Si       2.83937961      -0.53098884      -1.79479963       0.00000000
