10
Lattice="16.290000149 0.0 0.0 0.0 16.290000149 0.0 0.0 0.0 29.1751946751" Properties=species:S:1:pos:R:3:initial_magmoms:R:1 pbc="T T T"
Si      -1.37070577       1.23867532      -1.44396791       0.00000000
Si       1.19843902      -1.40291110      -1.47463104       0.00000000
Si      -1.36751130      -1.42692256       1.30001750       0.00000000
Si       1.43550739       1.40932936       1.31664736       0.00000000
Si      -0.06906960       2.74437633       2.56365353       0.00000000
Si       0.06638175      -2.64008774       2.68090864       0.00000000
Si       2.55446750      -2.76004731      -0.17155014       0.00000000
Si      -2.77500153       2.55767663      -0.13055900       0.00000000
Si       2.73774629       2.64639197      -0.18246167       0.00000000
Si      -0.03881907       2.63570573      -2.78614357       0.00000000
