10
Lattice="16.290000149 0.0 0.0 0.0 16.290000149 0.0 0.0 0.0 29.1751946751" Properties=species:S:1:pos:R:3:initial_magmoms:R:1 pbc="T T T"
Si       1.38214135      -1.35625654      -1.32301339       0.00000000
Si       1.34245891       1.32198238       1.40225030       0.00000000
Si      -1.34770429      -1.40173822       1.32134748       0.00000000
Si      -1.32812371       1.39391902      -1.37294382       0.00000000
Si      -0.03016908      -2.65136042      -2.66864251       0.00000000
Si       2.70374906       0.04579119      -2.66511144       0.00000000
Si      -2.66501144       2.70883154       0.04010714       0.00000000
Si      -2.69871545      -0.03204243       2.68018218       0.00000000
Si      -2.75687076       0.03319902      -2.64750421       0.00000000
Si       2.69566922       2.71495356       0.09225488       0.00000000
