10
Lattice="16.290000149 0.0 0.0 0.0 16.290000149 0.0 0.0 0.0 29.1751946751" Properties=species:S:1:pos:R:3:initial_magmoms:R:1 pbc="T T T"
Si      -1.35540946      -1.34333857       1.37631063       0.00000000
Si       1.33410214       1.35132067       1.39489523       0.00000000
Si      -1.37676565       1.34794864      -1.35863047       0.00000000
Si       1.36254448      -1.37396377      -1.34990708       0.00000000
Si       2.71498916      -2.69358410       0.05668740       0.00000000
Si       2.69521310       2.71472852       0.06506068       0.00000000
Si      -2.71459820      -2.69943221       0.02334016       0.00000000
Si       2.72635958      -0.02000412      -2.69984042       0.00000000
Si      -0.02906136       2.74968687      -2.67997795       0.00000000
Si      -0.00648342      -2.70412373       2.74098036       0.00000000
