10
Lattice="16.290000149 0.0 0.0 0.0 16.290000149 0.0 0.0 0.0 29.1751946751" Properties=species:S:1:pos:R:3:initial_magmoms:R:1 pbc="T T T"
Si      -0.26782715       0.82160245       2.15423802       0.00000000
Si       1.65222956      -1.65390743       0.09441093       0.00000000
Si      -1.77236831      -1.00551655      -1.15180751       0.00000000
Si       0.92054791       1.73133380      -1.27941981       0.00000000
Si      -0.43190329      -2.30769029      -2.57602381       0.00000000
Si      -2.53662995       1.31062825       2.05521741       0.00000000
Si       2.44828928       0.46752300      -2.49334131       0.00000000
Si       3.48125448      -0.35772840      -0.53988698       0.00000000
Si       1.01918386       2.80776886       2.26845891       0.00000000
Si       2.11691810      -2.07759404       2.30626996       0.00000000
