10
Lattice="16.290000149 0.0 0.0 0.0 16.290000149 0.0 0.0 0.0 29.1751946751" Properties=species:S:1:pos:R:3:initial_magmoms:R:1 pbc="T T T"
Si      -0.84162286       1.84555928      -1.12622086       0.00000000
Si       1.71563024      -0.43852680      -1.52656289       0.00000000
Si       1.37326330       1.02433150       1.63678677       0.00000000
Si      -1.38966733      -1.73960912       0.91458400       0.00000000
H        1.11770578      -0.53325315      -2.92752656       0.00000000
H       -1.99401005      -1.17305920      -2.19257423       0.00000000
Si       2.19333449      -2.46519830      -0.46082220       0.00000000
Si       0.32912316      -3.37077570       0.81705133       0.00000000
Si       2.63743247       2.50097114       0.30905284       0.00000000
Si      -2.56254734       2.60293025       0.25251131       0.00000000
