10
Lattice="16.290000149 0.0 0.0 0.0 16.290000149 0.0 0.0 0.0 29.1751946751" Properties=species:S:1:pos:R:3:initial_magmoms:R:1 pbc="T T T"
Si      -1.19573488      -0.36668790      -0.89095209       0.00000000
H        1.40356270      -2.03194946       0.45889664       0.00000000
Si      -0.34526655       1.11954655      -2.52149538       0.00000000
Si       0.08060292       2.93027781      -1.03545683       0.00000000
Si      -1.96805030      -2.48616353       0.28119053       0.00000000
Si       1.99401005       1.17305920       2.19257423       0.00000000
Si      -1.45036387      -1.56719575       2.37238096       0.00000000
Si       0.60434272      -0.56654992       3.10715823       0.00000000
Si      -0.65140453      -2.74437633      -1.62864689       0.00000000
H        3.11171583       0.63980605      -0.73495233       0.00000000
