10
Lattice="16.290000149 0.0 0.0 0.0 16.290000149 0.0 0.0 0.0 29.1751946751" Properties=species:S:1:pos:R:3:initial_magmoms:R:1 pbc="T T T"
Si      -1.36060597      -1.36176256       1.34418874       0.00000000
Si       1.35343837       1.35392707       1.36154799       0.00000000
Si       1.36862065      -1.37958382      -1.32303673       0.00000000
Si      -1.38505726       1.33802803      -1.34897348       0.00000000
Si      -0.02394630       2.70143588      -2.67880802       0.00000000
Si       2.71630865      -0.03986163       2.66614599       0.00000000
Si      -0.00417024      -2.70687674      -2.68718131       0.00000000
Si      -2.73466749       0.00322542       2.67717421       0.00000000
Si      -0.00936675      -2.73787661       2.68621852       0.00000000
Si       2.72741844       2.69685839       0.01916810       0.00000000
