10
Lattice="16.290000149 0.0 0.0 0.0 16.290000149 0.0 0.0 0.0 29.1751946751" Properties=species:S:1:pos:R:3:initial_magmoms:R:1 pbc="T T T"
Si       1.18162774       0.54361360       1.04339249       0.00000000
Si      -1.30631140      -0.53217801      -0.92666253       0.00000000
Si      -0.07027506      -2.36908730      -1.61896073       0.00000000
Si      -0.35860806       1.80963983       2.24415597       0.00000000
Si       2.84945497       1.32911740      -0.40562273       0.00000000
Si      -3.09034335      -1.12795219       0.51374600       0.00000000
Si       2.32279112      -0.95558770       2.42818960       0.00000000
Si      -2.32727087       0.80006707      -2.54673192       0.00000000
Si      -1.83049103       3.02195793       0.79169808       0.00000000
H       -0.33765912       0.70641586      -3.61121807       0.00000000
