10
Lattice="16.290000149 0.0 0.0 0.0 16.290000149 0.0 0.0 0.0 29.1751946751" Properties=species:S:1:pos:R:3:initial_magmoms:R:1 pbc="T T T"
Si      -0.72899380       2.18721922       0.41878074       0.00000000
Si       1.91387954       0.51723357       1.26990870       0.00000000
Si      -1.61852554      -1.48505180       0.94798960       0.00000000
Si       0.74526751       0.36389580      -2.25066204       0.00000000
H        1.42985476      -2.15233908      -1.21969819       0.00000000
H        1.80196724       1.92983722       1.82210761       0.00000000
Si       1.20819673       3.22253018      -0.47853154       0.00000000
Si       2.56104866       1.69412092      -1.64087130       0.00000000
H       -0.43523622      -2.59650222      -2.47811186       0.00000000
Si      -0.41241393      -2.89912155       2.40591376       0.00000000
