10
Lattice="16.290000149 0.0 0.0 0.0 16.290000149 0.0 0.0 0.0 29.1751946751" Properties=species:S:1:pos:R:3:initial_magmoms:R:1 pbc="T T T"
Si       1.37622808       1.36475992       1.30722377       0.00000000
Si      -1.31929453       1.39082392      -1.33940401       0.00000000
Si       1.32859612      -1.35697330      -1.36828746       0.00000000
Si      -1.37181349      -1.35550720       1.33925814       0.00000000
Si      -2.62725122       0.02953377      -2.68788151       0.00000000
Si      -0.00762372       2.68198562       2.66483311       0.00000000
Si       2.73865854       0.04922838      -2.62522194       0.00000000
Si       2.70655094       0.00053757       2.68432214       0.00000000
Si      -0.00983916      -2.71974584       2.67699916       0.00000000
Si      -0.08778681      -2.78806611      -2.60444921       0.00000000
