10
Lattice="16.290000149 0.0 0.0 0.0 16.290000149 0.0 0.0 0.0 29.1751946751" Properties=species:S:1:pos:R:3:initial_magmoms:R:1 pbc="T T T"
Si      -1.66925261       0.15886497       0.09481938       0.00000000
Si      -0.12439044       1.95486355       0.57165876       0.00000000
H        0.13437621       0.81865070      -2.25349204       0.00000000
Si       1.14575716      -0.32666663      -2.23231085       0.00000000
Si      -1.32506119      -2.16904773       0.43934926       0.00000000
Si       0.31457619      -2.28320805      -1.23478176       0.00000000
Si       2.12270105       1.42538967       0.86031814       0.00000000
Si       3.03948760       0.56780750      -1.12762127       0.00000000
Si       2.36418385      -0.43158824       2.41410148       0.00000000
Si      -2.95207383       1.33685352      -1.46392374       0.00000000
