10
Lattice="16.290000149 0.0 0.0 0.0 16.290000149 0.0 0.0 0.0 29.1751946751" Properties=species:S:1:pos:R:3:initial_magmoms:R:1 pbc="T T T"
Si       1.35221662       1.33031309      -1.33988540       0.00000000
Si      -1.34982199       1.39816094       1.29196515       0.00000000
Si       1.37687968      -1.35675502       1.31256283       0.00000000
Si      -1.30321630      -1.32103105      -1.43163847       0.00000000
Si      -2.67245435       0.01410551       2.65491354       0.00000000
Si      -0.00508248      -2.71651391       2.62226650       0.00000000
Si       0.04608441       2.74016373       2.62028258       0.00000000
Si       2.73478152       0.01395727       2.65062479       0.00000000
Si      -2.64276582       2.75047530      -0.14141217       0.00000000
Si       2.66773187       0.00692814      -2.73863468       0.00000000
