10
Lattice="16.290000149 0.0 0.0 0.0 16.290000149 0.0 0.0 0.0 29.1751946751" Properties=species:S:1:pos:R:3:initial_magmoms:R:1 pbc="T T T"
Si      -1.45611424      -1.29867139       1.30313925       0.00000000
Si       1.36933741      -1.38790801      -1.31078315       0.00000000
Si      -1.36368478       1.32517522      -1.38100784       0.00000000
Si       1.38267892       1.35092971       1.34051267       0.00000000
Si      -0.05519052       2.72256401       2.57258114       0.00000000
Si      -0.21416463      -2.68682375       2.67641566       0.00000000
Si       2.72412785       2.68335398      -0.03223859       0.00000000
Si       2.72295497      -0.04062726      -2.68510987       0.00000000
Si       0.00830790      -2.73352719      -2.67848710       0.00000000
Si      -0.00988803       2.67656105      -2.74267253       0.00000000
