10
Lattice="16.290000149 0.0 0.0 0.0 16.290000149 0.0 0.0 0.0 29.1751946751" Properties=species:S:1:pos:R:3:initial_magmoms:R:1 pbc="T T T"
Si      -1.46321668       1.20257668       1.34754389       0.00000000
Si       1.18082953       1.52897941      -1.31457592       0.00000000
Si      -0.22528581      -1.85264543      -1.43498195       0.00000000
Si       1.43492095      -1.18565137       1.44977377       0.00000000
H       -2.95064031      -1.24421392      -1.41470519       0.00000000
Si       2.08406117      -2.03136302      -2.03076860       0.00000000
Si      -2.61273683      -0.44064450       2.52657186       0.00000000
Si       2.53671140       0.17591571      -2.64236821       0.00000000
Si       3.15584544      -1.94302235       0.07104160       0.00000000
Si      -0.01480598       2.59566491       2.69748015       0.00000000
