10
Lattice="16.290000149 0.0 0.0 0.0 16.290000149 0.0 0.0 0.0 29.1751946751" Properties=species:S:1:pos:R:3:initial_magmoms:R:1 pbc="T T T"
Si      -1.35814618      -0.57117628      -0.27529714       0.00000000
H        0.92577700      -1.76055806      -0.44092472       0.00000000
H        1.59953140      -0.83701279       1.17433076       0.00000000
Si       1.06008805      -1.09672426       2.55869375       0.00000000
Si      -2.71402805       0.78188743       1.05249515       0.00000000
Si      -1.82283473      -0.14748966      -2.48715617       0.00000000
Si       2.05384322      -1.82066816      -1.44831501       0.00000000
Si      -1.17273340       2.09127764       2.24488535       0.00000000
Si       0.00619020       1.14868936      -3.12145408       0.00000000
Si      -1.81079642      -2.77845501       0.33630247       0.00000000
