10
Lattice="16.290000149 0.0 0.0 0.0 16.290000149 0.0 0.0 0.0 29.1751946751" Properties=species:S:1:pos:R:3:initial_magmoms:R:1 pbc="T T T"
Si       1.34812620      -1.35975075       1.35510027       0.00000000
Si      -1.31387029      -1.38343641      -1.36499066       0.00000000
Si      -1.37820080       1.34877129       1.34200060       0.00000000
Si       1.32263235       1.38405543      -1.36294839       0.00000000
Si      -2.63170002       0.05152853      -2.64125955       0.00000000
Si       2.67245435      -0.01410551      -2.65491354       0.00000000
Si      -0.00726860       2.71781548       2.66664197       0.00000000
Si       2.66737187      -2.73061942      -0.03264704       0.00000000
Si       2.70526241       0.00317166       2.70521158       0.00000000
Si      -0.02751544      -2.70732472       2.70664116       0.00000000
