10
Lattice="16.290000149 0.0 0.0 0.0 16.290000149 0.0 0.0 0.0 29.1751946751" Properties=species:S:1:pos:R:3:initial_magmoms:R:1 pbc="T T T"
Si       1.36363591       1.34972425      -1.35005296       0.00000000
Si       1.37433844      -1.35179308       1.34491812       0.00000000
Si      -1.35122293       1.36155079       1.36122706       0.00000000
Si      -1.36945144      -1.36182772      -1.35250367       0.00000000
Si      -0.00260640      -2.67199985       2.70763312       0.00000000
Si      -0.02585223       2.69749696      -2.68443884       0.00000000
Si       2.66473451      -2.72028341      -0.06716130       0.00000000
Si       2.68372865      -0.01915704      -2.73339481       0.00000000
Si       2.72565911       2.69220434       0.02789149       0.00000000
Si      -2.68898544       0.01192428       2.73123585       0.00000000
