10
Lattice="16.290000149 0.0 0.0 0.0 16.290000149 0.0 0.0 0.0 29.1751946751" Properties=species:S:1:pos:R:3:initial_magmoms:R:1 pbc="T T T"
Si       1.31434237       1.35826021      -1.38386701       0.00000000
Si      -1.38606724       1.47937636       1.21187924       0.00000000
Si       1.59891238      -1.30013749       1.21351305       0.00000000
Si      -1.50239413      -1.34078104      -1.30354770       0.00000000
Si      -1.69220522      -2.38454651       2.10472772       0.00000000
Si      -2.23653557      -0.00685809       2.84242252       0.00000000
Si       2.37156338      -0.10769319      -2.86252423       0.00000000
Si       3.46994922       0.16430094       1.37423919       0.00000000
Si       3.12854340       2.11333430       0.00078773       0.00000000
H        2.07091514       0.99963586       2.99842228       0.00000000
