10
Lattice="16.290000149 0.0 0.0 0.0 16.290000149 0.0 0.0 0.0 29.1751946751" Properties=species:S:1:pos:R:3:initial_magmoms:R:1 pbc="T T T"
Si       0.89769304      -0.72764173      -0.98784292       0.00000000
Si      -1.09397125       1.72713098       0.78599317       0.00000000
Si      -1.92629252      -0.26393058       1.88140911       0.00000000
Si      -1.37701000       2.16433829      -1.52026104       0.00000000
Si       2.29763513      -1.89390800       0.47718948       0.00000000
Si      -0.70439590      -1.84435382      -2.32870569       0.00000000
Si       2.04721319       0.91557946      -2.16687088       0.00000000
Si       0.85061494       2.58597236       1.83934140       0.00000000
Si      -0.49656807      -1.63110142       3.21046176       0.00000000
Si      -3.23226183      -1.71053147       0.50899045       0.00000000
