10
Lattice="16.290000149 0.0 0.0 0.0 16.290000149 0.0 0.0 0.0 29.1751946751" Properties=species:S:1:pos:R:3:initial_magmoms:R:1 pbc="T T T"
Si      -1.34812620       1.35975075      -1.35510027       0.00000000
Si       1.35713620       1.36292241       1.35011131       0.00000000
Si      -1.37564164      -1.34757397       1.35154089       0.00000000
Si       1.31924566      -1.37086867      -1.38774731       0.00000000
Si       0.01353699      -2.69640227       2.68204647       0.00000000
Si      -2.66199649      -0.02368566      -2.72009093       0.00000000
Si       2.70120782      -0.01110978      -2.69745097       0.00000000
Si      -0.02650383       2.71761185       2.68578090       0.00000000
Si      -2.69069480      -2.71401176      -0.04227486       0.00000000
Si       2.70068654      -2.71673219      -0.05067731       0.00000000
