10
Lattice="10.86 0.0 0.0 0.0 10.86 0.0 0.0 0.0 10.86" Properties=species:S:1:pos:R:3:initial_magmoms:R:1 pbc="T T T"
Si       1.19278638       1.21886124       1.45269876       0.00000000
Si       1.19278638      -1.49613876      -1.26230124       0.00000000
Si      -1.52221362      -1.49613876       1.45269876       0.00000000
Si       0.01840770       2.55938706      -2.50649886       0.00000000
Si       2.55028638       2.57636124       0.09519876       0.00000000
Si       2.55028638      -0.13863876      -2.61980124       0.00000000
Si      -0.34235064       2.64267240       2.69546286       0.00000000
Si       2.55028638      -0.13863876       2.81019876       0.00000000
Si       2.55028638      -2.85363876       0.09519876       0.00000000
Si      -0.16471362      -2.85363876      -2.61980124       0.00000000
