10
Lattice="10.86 0.0 0.0 0.0 10.86 0.0 0.0 0.0 10.86" Properties=species:S:1:pos:R:3:initial_magmoms:R:1 pbc="T T T"
Si      -1.50627114       1.49807184       0.94084524       0.00000000
Si       1.13517408       1.38075126      -1.49048070       0.00000000
Si      -1.62575286      -0.92201400      -1.61972556       0.00000000
Si       0.24829218      -2.50738938       2.34438078       0.00000000
Si      -0.19231974       2.90695050       2.49296730       0.00000000
Si      -2.90731974       0.19195050       2.49296730       0.00000000
Si       2.52268026       2.90695050      -0.22203270       0.00000000
Si      -2.90731974      -2.52304950      -0.22203270       0.00000000
Si       2.52268026       0.19195050      -2.93703270       0.00000000
Si      -0.19231974      -2.52304950      -2.93703270       0.00000000
