10
Lattice="10.86 0.0 0.0 0.0 10.86 0.0 0.0 0.0 10.86" Properties=species:S:1:pos:R:3:initial_magmoms:R:1 pbc="T T T"
Si      -1.39598784       1.21756890      -1.25703414       0.00000000
Si       1.31901216       1.21756890       1.45796586       0.00000000
Si      -1.39598784      -1.49743110       1.45796586       0.00000000
Si       2.45869314      -0.41756700      -2.48749386       0.00000000
Si      -0.03848784       2.57506890      -2.61453414       0.00000000
Si       2.67651216       2.57506890       0.10046586       0.00000000
Si       2.49887514      -2.78861994      -0.01427004       0.00000000
Si      -2.75348784       2.57506890       0.10046586       0.00000000
Si      -0.03848784       2.57506890       2.81546586       0.00000000
Si       2.67651216      -0.13993110       2.81546586       0.00000000
