10
Lattice="16.28999089631971 0.0 0.0 0.0 16.28999089631971 0.0 0.0 0.0 34.40246978574605" Properties=species:S:1:pos:R:3:initial_magmoms:R:1 pbc="T T T"
Si       1.35361755       1.36956546      -1.33576608       0.00000000
Si       1.35659862      -1.35545832       1.36072165       0.00000000
Si      -1.35669636       1.36054080       1.36034322       0.00000000
Si      -1.33923348      -1.38802203      -1.35168411       0.00000000
Si      -2.63549394      -0.04070871      -2.70414916       0.00000000
Si      -2.71502172       2.71137276       0.00216736       0.00000000
Si       2.71189404      -2.71736422       0.00258019       0.00000000
Si       2.71192662       2.71762812       0.00326824       0.00000000
Si      -2.71596654      -2.71457863       0.00337144       0.00000000
Si       2.71344159       0.00171045       2.71779663       0.00000000
