10
Lattice="16.28999089631971 0.0 0.0 0.0 16.28999089631971 0.0 0.0 0.0 34.40246978574605" Properties=species:S:1:pos:R:3:initial_magmoms:R:1 pbc="T T T"
Si       1.32406749       1.35112305       1.36077325       0.00000000
Si      -1.22365593       1.39075987      -1.43936918       0.00000000
Si      -1.39232259      -1.35830536       1.35671376       0.00000000
Si       1.38166893      -1.33802431      -1.42549121       0.00000000
Si      -2.11385556      -0.47343256      -2.65260632       0.00000000
Si      -0.43821729      -2.18870440      -2.67736373       0.00000000
Si       2.66214438      -2.70843685       0.01579074       0.00000000
Si       2.68506441      -0.00160945       2.71863949       0.00000000
Si      -2.72706003       2.68046524       0.00650895       0.00000000
Si       2.69351892       2.71741096      -0.02727773       0.00000000
