10
Lattice="16.28999089631971 0.0 0.0 0.0 16.28999089631971 0.0 0.0 0.0 34.40246978574605" Properties=species:S:1:pos:R:3:initial_magmoms:R:1 pbc="T T T"
Si      -1.35301482       1.35787901       1.35790064       0.00000000
Si      -1.35602847      -1.35600535      -1.35728140       0.00000000
Si       1.35931905       1.35826997      -1.35731580       0.00000000
Si       1.36076886      -1.35415253       1.36061844       0.00000000
Si      -2.71242998      -2.71454672      -0.00061924       0.00000000
Si      -2.71338946       0.00145958      -2.71514764       0.00000000
Si       0.00197109      -2.71394399      -2.71507884       0.00000000
Si      -2.71337317       2.71656275      -0.00010321       0.00000000
Si       0.00198738       2.71622066      -2.71494123       0.00000000
Si       2.71650411       0.00107514      -2.71494123       0.00000000
