10
Lattice="16.28999089631971 0.0 0.0 0.0 16.28999089631971 0.0 0.0 0.0 34.40246978574605" Properties=species:S:1:pos:R:3:initial_magmoms:R:1 pbc="T T T"
Si       1.04800086       1.51988143      -1.46943351       0.00000000
Si      -1.50892641      -1.29344214      -1.46231220       0.00000000
Si      -0.97793757       0.94119547       2.12662426       0.00000000
Si       1.98534375      -2.82408231      -0.03540016       0.00000000
Si      -2.58269805      -2.28377559       0.48621038       0.00000000
Si      -3.04570709      -0.21494166       1.79663559       0.00000000
Si      -0.63796527      -3.48894237       1.32074596       0.00000000
Si       1.91677914       3.29482354       0.05150053       0.00000000
Si       2.50256754       0.06444650      -3.01032100       0.00000000
Si      -0.22392234      -2.65745190      -3.03970072       0.00000000
