10
Lattice="16.28999089631971 0.0 0.0 0.0 16.28999089631971 0.0 0.0 0.0 34.40246978574605" Properties=species:S:1:pos:R:3:initial_magmoms:R:1 pbc="T T T"
Si       1.99653498       0.34220403       1.03348517       0.00000000
Si      -1.57009536      -1.02133413       1.42116682       0.00000000
Si       0.22535586      -1.61374509      -1.72504401       0.00000000
Si      -1.00874196       2.02794047       0.89549679       0.00000000
Si      -3.16227996      -0.24848603      -0.13895165       0.00000000
Si      -2.65013865       2.02329782      -0.77777147       0.00000000
Si      -1.85559390       0.90042812       2.82258661       0.00000000
Si       3.41529624      -1.00209727      -0.26562162       0.00000000
Si       2.08362132       2.28328622      -1.86729830       0.00000000
Si       2.61636948       2.55078431       0.48958182       0.00000000
