10
Lattice="16.28999089631971 0.0 0.0 0.0 16.28999089631971 0.0 0.0 0.0 34.40246978574605" Properties=species:S:1:pos:R:3:initial_magmoms:R:1 pbc="T T T"
Si      -1.64139669      -0.00464265      -1.67326826       0.00000000
Si       0.27424215       2.22350355       0.82428364       0.00000000
Si      -0.84685194      -1.12751235       1.92708982       0.00000000
Si       1.00874196      -2.02794047      -0.89549679       0.00000000
Si      -0.56135340      -3.04927460       0.52567003       0.00000000
Si      -2.87856517       0.08759133       1.52454630       0.00000000
Si      -2.15353800      -2.27642650      -1.03444844       0.00000000
Si      -2.96516607       1.48721184      -0.42435470       0.00000000
Si       3.00527694      -1.68573644       0.13798838       0.00000000
Si       2.61752607       2.45770488       0.45934203       0.00000000
