10
Lattice="16.28999089631971 0.0 0.0 0.0 16.28999089631971 0.0 0.0 0.0 34.40246978574605" Properties=species:S:1:pos:R:3:initial_magmoms:R:1 pbc="T T T"
Si       1.28925576      -1.34441370       1.41642616       0.00000000
Si      -0.81176328      -1.94411376      -1.10282064       0.00000000
Si       1.67400927       0.93859722      -1.41410197       0.00000000
Si      -1.41814224       1.36244673       1.37415926       0.00000000
Si       0.49585131       1.15318539      -3.50106016       0.00000000
Si       2.78052381      -2.48070636       0.04853847       0.00000000
Si       2.64756483       0.00364896       2.75546048       0.00000000
Si      -2.69985573      -2.75468787       0.04804308       0.00000000
Si       1.10939787      -3.49598061      -1.21418872       0.00000000
Si      -0.06436179      -2.71397916       2.75219224       0.00000000
