10
Lattice="16.28999089631971 0.0 0.0 0.0 16.28999089631971 0.0 0.0 0.0 34.40246978574605" Properties=species:S:1:pos:R:3:initial_magmoms:R:1 pbc="T T T"
Si      -1.07377164      -0.99033345       1.94852258       0.00000000
Si       1.28500407      -1.36400976      -1.57738852       0.00000000
Si       1.50892641       1.29344214       1.46231220       0.00000000
Si      -1.40868915       1.34949766      -1.56094413       0.00000000
Si       0.87096114      -2.19550023       2.78305815       0.00000000
Si      -1.53678068       1.07850048       3.25894778       0.00000000
Si       2.55692727       2.81332358      -0.00712132       0.00000000
Si       2.53299726      -2.86329249      -0.24587459       0.00000000
Si       2.65691529      -0.00601020      -2.95328167       0.00000000
Si      -2.69381084       2.91710717      -0.25299590       0.00000000
