10
Lattice="16.28999089631971 0.0 0.0 0.0 16.28999089631971 0.0 0.0 0.0 34.40246978574605" Properties=species:S:1:pos:R:3:initial_magmoms:R:1 pbc="T T T"
Si      -1.80802710      -1.39683492       0.49646232       0.00000000
Si      -0.60276258       2.30855364       0.05731455       0.00000000
Si      -0.14336829      -0.17212014      -2.40937832       0.00000000
Si       1.92122631      -0.77753799       1.26466990       0.00000000
Si      -2.22812991      -0.72272214       2.72202814       0.00000000
Si       1.39201308       3.32384418      -0.67129577       0.00000000
Si      -3.20919353      -1.23333219      -1.37874855       0.00000000
Si      -2.09196180       2.60271846      -1.81215111       0.00000000
Si       1.67400927      -1.45301913      -3.11545500       0.00000000
Si       2.07055674      -3.12039837       0.93364915       0.00000000
