10
Lattice="16.28999089631971 0.0 0.0 0.0 16.28999089631971 0.0 0.0 0.0 34.40246978574605" Properties=species:S:1:pos:R:3:initial_magmoms:R:1 pbc="T T T"
Si      -0.44833338      -1.60342470       1.61382076       0.00000000
Si      -1.49801211       0.12018762      -1.78848220       0.00000000
Si       1.92492414       0.03070665      -1.34668543       0.00000000
Si      -0.44098659       2.03242185       1.10817298       0.00000000
Si       1.48408416       2.27959002      -2.01361208       0.00000000
Si       1.02775239       3.41251065      -0.02549224       0.00000000
Si      -2.80624572       2.04527466       0.80845849       0.00000000
Si      -1.43856990      -2.10059550      -2.55589852       0.00000000
Si       0.55925199      -3.53828574       0.74856376       0.00000000
Si      -3.61740627       0.49692645      -0.86625467       0.00000000
