10
Lattice="16.28999089631971 0.0 0.0 0.0 16.28999089631971 0.0 0.0 0.0 34.40246978574605" Properties=species:S:1:pos:R:3:initial_magmoms:R:1 pbc="T T T"
Si      -0.66354057      -2.17650690      -0.62512763       0.00000000
Si      -0.42316533       1.45068966      -1.85432856       0.00000000
Si       2.55969657       0.04041549      -0.11342501       0.00000000
Si      -1.81977219       0.34723764       1.86299799       0.00000000
Si      -2.72409525       1.43539335      -1.35920794       0.00000000
Si       1.04739813       3.22165701      -0.92848878       0.00000000
Si       0.43518735       3.26839302       1.75600625       0.00000000
Si       1.11508308      -3.63938148       0.01950621       0.00000000
Si      -0.63760689       1.69500708       3.35048734       0.00000000
Si       2.94989094       1.92174759      -1.61423359       0.00000000
