10
Lattice="16.28999089631971 0.0 0.0 0.0 16.28999089631971 0.0 0.0 0.0 34.40246978574605" Properties=species:S:1:pos:R:3:initial_magmoms:R:1 pbc="T T T"
Si       0.53545230      -2.28527523       0.05497518       0.00000000
Si       0.02938716       0.93573018       2.15565996       0.00000000
Si      -2.34035172       0.29594043      -0.34873803       0.00000000
Si       1.71022194       1.19814579      -1.25139054       0.00000000
Si       1.22543154      -2.40021747      -2.18651899       0.00000000
Si      -2.06105967       2.50488072      -1.41163733       0.00000000
Si       2.36441205       1.17535608       2.39059456       0.00000000
Si      -1.45932336      -3.30056577       0.78358549       0.00000000
Si      -1.16388792       3.05308809       1.91793876       0.00000000
Si      -0.42430563      -0.84698226       3.67858935       0.00000000
