10
Lattice="16.28999089631971 0.0 0.0 0.0 16.28999089631971 0.0 0.0 0.0 34.40246978574605" Properties=species:S:1:pos:R:3:initial_magmoms:R:1 pbc="T T T"
Si      -1.73750769      -1.31201289      -0.95735246       0.00000000
Si       0.45369279       1.78271244      -1.52292938       0.00000000
Si      -0.96301593       1.29916008       1.75789838       0.00000000
Si       1.85696226      -1.67453055       0.15776981       0.00000000
Si       2.78871768       2.02233834      -1.28799479       0.00000000
Si       0.42430563       0.84698226      -3.67858935       0.00000000
Si      -3.24343674       0.27924318      -2.00284411       0.00000000
Si      -1.81449423      -0.08097759       3.44685418       0.00000000
Si       2.67577911      -1.94292459      -2.08451561       0.00000000
Si      -1.03501773      -2.45358351      -2.89500385       0.00000000
