10
Lattice="16.28999089631971 0.0 0.0 0.0 16.28999089631971 0.0 0.0 0.0 34.40246978574605" Properties=species:S:1:pos:R:3:initial_magmoms:R:1 pbc="T T T"
Si       1.59143526      -0.11372049       1.72325508       0.00000000
Si      -0.34323030       2.37627117       0.00815339       0.00000000
Si       1.22064228      -0.77621850      -1.94742170       0.00000000
Si      -1.88560334      -1.46926841       0.54042870       0.00000000
Si      -1.74439673       2.53977390      -1.86705748       0.00000000
Si       1.19635389      -2.31898901       2.51059044       0.00000000
Si       3.53535354       0.65270772       0.44534022       0.00000000
Si       0.88440039       1.61991018       3.23748063       0.00000000
Si       1.79072712      -3.03600707      -1.44803516       0.00000000
Si       3.28313547       0.44716050      -1.92447524       0.00000000
