10
Lattice="16.28999089631971 0.0 0.0 0.0 16.28999089631971 0.0 0.0 0.0 34.40246978574605" Properties=species:S:1:pos:R:3:initial_magmoms:R:1 pbc="T T T"
Si       1.43866764      -1.17095778      -1.49382488       0.00000000
Si      -1.25832105       1.54703102      -1.43778322       0.00000000
Si       1.54380330       0.38999142       1.89265293       0.00000000
Si      -1.77554484      -1.34149779       1.53713761       0.00000000
Si       1.50244299       2.66741324       1.57962469       0.00000000
Si       2.73782772      -2.48681511      -0.09680860       0.00000000
Si       0.09769113      -2.52934830      -2.84897332       0.00000000
Si      -2.73681774      -2.67415011      -0.13564901       0.00000000
Si      -2.61289971       0.18313218      -2.84305609       0.00000000
Si       2.81579166       0.18169944      -2.84763163       0.00000000
