10
Lattice="16.28999089631971 0.0 0.0 0.0 16.28999089631971 0.0 0.0 0.0 34.40246978574605" Properties=species:S:1:pos:R:3:initial_magmoms:R:1 pbc="T T T"
Si      -0.02938716      -0.93573018      -2.15565996       0.00000000
Si       2.33502489       0.23962590       0.23493460       0.00000000
Si      -0.45369279      -1.78271244       1.52292938       0.00000000
Si      -1.19327508       2.11735791      -0.23772120       0.00000000
Si      -2.36973888      -0.63978975      -2.50439799       0.00000000
Si      -1.41670872      -0.48355236       3.28082777       0.00000000
Si       1.68083478       0.26241561      -3.40705050       0.00000000
Si      -0.56001762       2.93602815      -2.38911525       0.00000000
Si      -2.19120048      -3.09472533       0.56557692       0.00000000
Si       0.50606514      -3.22100541      -2.10068478       0.00000000
