10
Lattice="16.28999089631971 0.0 0.0 0.0 16.28999089631971 0.0 0.0 0.0 34.40246978574605" Properties=species:S:1:pos:R:3:initial_magmoms:R:1 pbc="T T T"
Si       0.03888423       1.53568829       1.80723155       0.00000000
Si      -2.36029068       0.08659764      -0.32369302       0.00000000
Si       0.63325746       0.81867024      -2.15139405       0.00000000
Si       1.19327508      -2.11735791       0.23772120       0.00000000
Si      -0.89717175      -0.54820737      -3.32957609       0.00000000
Si      -3.12936113      -1.65012813       1.07346086       0.00000000
Si      -1.17646380      -2.75714766      -2.26667679       0.00000000
Si       1.16388792      -3.05308809      -1.91793876       0.00000000
Si      -1.98241155       1.22854293       3.04933342       0.00000000
Si      -3.04307300       2.38540890      -0.16293019       0.00000000
