10
Lattice="16.28999089631971 0.0 0.0 0.0 16.28999089631971 0.0 0.0 0.0 34.40246978574605" Properties=species:S:1:pos:R:3:initial_magmoms:R:1 pbc="T T T"
Si       1.35692442      -1.35712316      -1.36326743       0.00000000
Si      -1.35871632       1.35822762      -1.36254498       0.00000000
Si       1.32931287       1.39626477       1.36275139       0.00000000
Si      -1.35982404      -1.34811642       1.40255507       0.00000000
Si       2.80557783       0.12368997       2.60801829       0.00000000
Si      -2.71440270      -2.71201526      -0.00271780       0.00000000
Si       2.71428867      -2.71344800      -0.00729333       0.00000000
Si       2.71212210       2.71863810      -0.00471314       0.00000000
Si      -2.71513575       2.71663443      -0.00608924       0.00000000
Si      -0.00122175      -2.71440051      -2.72109927       0.00000000
