10
Lattice="16.28999089631971 0.0 0.0 0.0 16.28999089631971 0.0 0.0 0.0 34.40246978574605" Properties=species:S:1:pos:R:3:initial_magmoms:R:1 pbc="T T T"
Si       1.33074639       0.38823957       1.90686116       0.00000000
Si      -1.10995173       1.40600619      -1.53786006       0.00000000
Si      -2.10053034      -0.48941676       1.17979896       0.00000000
Si       1.57076325      -1.31167080      -1.50180626       0.00000000
Si      -2.24090127       2.93907438      -0.18205797       0.00000000
Si      -2.71731861      -2.61506628       0.03715469       0.00000000
Si      -2.48339421       0.03570768      -2.89187323       0.00000000
Si       0.05217687       0.60377256       3.85063619       0.00000000
Si       0.22929804      -2.67400350      -2.89304291       0.00000000
Si       3.02083389      -2.60726337      -0.07640793       0.00000000
