10
Lattice="16.28999089631971 0.0 0.0 0.0 16.28999089631971 0.0 0.0 0.0 34.40246978574605" Properties=species:S:1:pos:R:3:initial_magmoms:R:1 pbc="T T T"
Si      -0.12618234      -2.07041013       1.05921823       0.00000000
Si       2.27566413       0.71395812       0.24422327       0.00000000
Si      -1.75713714       1.48437738       0.85593393       0.00000000
Si       0.12295692      -0.37923120      -2.42661396       0.00000000
Si      -1.46942316       1.57136598      -2.69543501       0.00000000
Si       3.18805074      -0.88278768       1.76020335       0.00000000
Si       1.42425099      -2.04814170       2.84642754       0.00000000
Si      -2.59247205       2.72468169      -0.97555138       0.00000000
Si      -2.16512019      -3.17754369       0.65326886       0.00000000
Si       3.55423365       0.49842513      -1.69955176       0.00000000
