10
Lattice="16.28999089631971 0.0 0.0 0.0 16.28999089631971 0.0 0.0 0.0 34.40246978574605" Properties=species:S:1:pos:R:3:initial_magmoms:R:1 pbc="T T T"
Si      -1.29686319       0.58391505      -1.87644936       0.00000000
Si      -0.29561463       1.11879720       2.05173004       0.00000000
Si      -0.23628645      -2.33582310       0.51073935       0.00000000
Si       2.24806887       0.42629301      -0.75086873       0.00000000
Si       1.70911422       0.44727453       3.10657916       0.00000000
Si      -3.29602086      -0.71733015      -1.52261976       0.00000000
Si      -0.73645461       3.36768057       1.38480339       0.00000000
Si       0.04613328      -0.26340930      -3.70958599       0.00000000
Si       3.36662172       0.64749492       1.45883755       0.00000000
Si       3.15260370      -1.65320694      -1.45206026       0.00000000
