10
Lattice="16.28999089631971 0.0 0.0 0.0 16.28999089631971 0.0 0.0 0.0 34.40246978574605" Properties=species:S:1:pos:R:3:initial_magmoms:R:1 pbc="T T T"
Si       0.11249874       1.55577645       1.72339269       0.00000000
Si       1.65750750       0.20022039      -1.64774161       0.00000000
Si      -2.00472885       0.67152267      -1.05484912       0.00000000
Si       0.24239520      -2.31034554       0.53402984       0.00000000
Si      -1.70911422      -0.44727453      -3.10657916       0.00000000
Si      -0.83676843       0.42002136       3.59199828       0.00000000
Si       1.50058593       2.16008658      -2.79134915       0.00000000
Si      -0.06704964      -3.58283889      -1.37475786       0.00000000
Si       2.44799604      -2.73085560       1.23470533       0.00000000
Si       0.53895465      -0.02098152      -3.85744789       0.00000000
