10
Lattice="16.28999089631971 0.0 0.0 0.0 16.28999089631971 0.0 0.0 0.0 34.40246978574605" Properties=species:S:1:pos:R:3:initial_magmoms:R:1 pbc="T T T"
Si      -0.64845603      -1.18786680       1.96293722       0.00000000
Si       1.55268135      -1.56079377      -0.94304103       0.00000000
Si       0.85965588       2.26256697       0.32255774       0.00000000
Si      -2.12727852       0.39372930      -1.34166267       0.00000000
Si      -0.98903106      -3.28368933       0.92422287       0.00000000
Si      -0.88770726       1.62792486      -3.07121340       0.00000000
Si       0.28953846      -3.49922232      -1.01955216       0.00000000
Si       0.17184321       3.28758264      -1.73202771       0.00000000
Si       3.07014372      -2.14907454       0.81286201       0.00000000
Si      -2.43239022       0.06545322       2.97560888       0.00000000
