10
Lattice="16.28999089631971 0.0 0.0 0.0 16.28999089631971 0.0 0.0 0.0 34.40246978574605" Properties=species:S:1:pos:R:3:initial_magmoms:R:1 pbc="T T T"
Si      -0.33189246      -0.91316853       2.11530584       0.00000000
Si       1.02332151       1.96118568       0.85638116       0.00000000
Si      -2.10465171       1.01963997      -0.50454690       0.00000000
Si       1.78393419      -1.25332002      -1.01267167       0.00000000
Si       1.97201853      -0.90365517       2.59659666       0.00000000
Si      -1.45046160       0.99685026       3.13743819       0.00000000
Si      -1.91870136       0.96192450      -2.97216864       0.00000000
Si      -0.74261223       2.99929851       2.01092869       0.00000000
Si       3.10199067      -1.99474308       0.88386875       0.00000000
Si       2.43239022      -0.06545322      -2.97560888       0.00000000
