10
Lattice="16.28999089631971 0.0 0.0 0.0 16.28999089631971 0.0 0.0 0.0 34.40246978574605" Properties=species:S:1:pos:R:3:initial_magmoms:R:1 pbc="T T T"
Si       0.33189246       0.91316853      -2.11530584       0.00000000
Si       2.30391099       0.00951336       0.48129082       0.00000000
Si      -1.23150771      -2.05524414       0.22561152       0.00000000
Si      -1.11856914       1.91001879       1.02213235       0.00000000
Si       1.35521397       2.87435421      -1.25892468       0.00000000
Si       2.25619758      -0.91965195       2.59267478       0.00000000
Si      -2.94752889      -1.55061252      -1.31348703       0.00000000
Si       2.82186783       2.28846807       0.47038523       0.00000000
Si      -2.05032456      -1.78685010       2.46789695       0.00000000
Si      -1.77275925       1.93280850      -2.61985275       0.00000000
