10
Lattice="16.28999089631971 0.0 0.0 0.0 16.28999089631971 0.0 0.0 0.0 34.40246978574605" Properties=species:S:1:pos:R:3:initial_magmoms:R:1 pbc="T T T"
Si       1.35711990       1.35490446       1.35600851       0.00000000
Si      -1.35759231       1.35692442      -1.35700618       0.00000000
Si       1.35702216      -1.35799956      -1.35662775       0.00000000
Si      -1.35993807      -1.35842310       1.35948316       0.00000000
Si       2.70565497       0.00589698       2.71432198       0.00000000
Si       2.71326240       2.71446682       0.00030962       0.00000000
Si       2.71443528      -0.00102627      -2.71421877       0.00000000
Si      -2.71396287      -0.00022806      -2.71470041       0.00000000
Si      -0.00001629       2.71482702       2.71418437       0.00000000
Si       0.00006516      -2.71565703      -2.71359953       0.00000000
