10
Lattice="16.28999089631971 0.0 0.0 0.0 16.28999089631971 0.0 0.0 0.0 34.40246978574605" Properties=species:S:1:pos:R:3:initial_magmoms:R:1 pbc="T T T"
Si       0.13696632       2.33067546       0.03815236       0.00000000
Si       1.21472901      -1.79975178       0.96395774       0.00000000
Si       0.71167752      -0.36279459      -2.24417757       0.00000000
Si      -2.36679039      -0.16259049       0.41640773       0.00000000
Si       0.19372068      -2.64174930      -2.23327198       0.00000000
Si       0.14600727      -3.57091461      -0.12188802       0.00000000
Si      -1.93722309       2.80447893      -1.09523764       0.00000000
Si      -3.22875945      -0.74124387      -1.69243045       0.00000000
Si      -3.05927829       2.07329346       0.78289744       0.00000000
Si       2.15068725       3.15764613      -0.78396392       0.00000000
