10
Lattice="16.28999089631971 0.0 0.0 0.0 16.28999089631971 0.0 0.0 0.0 34.40246978574605" Properties=species:S:1:pos:R:3:initial_magmoms:R:1 pbc="T T T"
Si      -1.36102950      -1.35032601      -1.35374138       0.00000000
Si       1.35882660      -1.35506844       1.36151291       0.00000000
Si      -1.35449721       1.35988105       1.36127209       0.00000000
Si       1.37762512       1.36613641      -1.36539007       0.00000000
Si      -0.00952965      -2.69995251      -2.71410180       0.00000000
Si      -2.70915732       2.71224427       0.00165132       0.00000000
Si      -2.71379997      -2.70817896       0.00337144       0.00000000
Si       2.71638098      -2.71054101      -0.00172012       0.00000000
Si       0.00158013      -2.71239807       2.71803745       0.00000000
Si      -2.71223613       0.00184240       2.71872550       0.00000000
