10
Lattice="16.28999089631971 0.0 0.0 0.0 16.28999089631971 0.0 0.0 0.0 34.40246978574605" Properties=species:S:1:pos:R:3:initial_magmoms:R:1 pbc="T T T"
Si      -1.35775521       1.35568801       1.35607731       0.00000000
Si       1.35916550       1.35622558      -1.35858869       0.00000000
Si      -1.35775521      -1.35846228      -1.35858869       0.00000000
Si       1.36248180      -1.36162775       1.36244177       0.00000000
Si      -2.70257616      -0.02117700       2.72216575       0.00000000
Si      -2.71314837       2.71352467      -0.00144490       0.00000000
Si      -2.71334385      -0.00173163      -2.71531965       0.00000000
Si       0.00138465       2.71329661      -2.71549167       0.00000000
Si       2.71612359       2.71404595      -0.00086006       0.00000000
Si      -2.71389771      -2.71802464      -0.00288981       0.00000000
