10
Lattice="16.28999089631971 0.0 0.0 0.0 16.28999089631971 0.0 0.0 0.0 34.40246978574605" Properties=species:S:1:pos:R:3:initial_magmoms:R:1 pbc="T T T"
Si       0.56948211      -0.43450154      -2.20946545       0.00000000
Si      -2.01372093      -0.82697067       0.82211628       0.00000000
Si       0.16280226       2.27659103       0.53633480       0.00000000
Si       1.68906123      -1.17430605       1.17340010       0.00000000
Si       0.79565247      -2.81470905      -1.93500240       0.00000000
Si      -1.74110778       2.41085321       1.94632082       0.00000000
Si       2.42435925       2.19670487       1.45911277       0.00000000
Si       3.51804446       0.25105334       0.65120471       0.00000000
Si      -2.14663104       0.27106560       2.91361560       0.00000000
Si       1.99267425      -3.26235825       0.07179799       0.00000000
