10
Lattice="16.28999089631971 0.0 0.0 0.0 16.28999089631971 0.0 0.0 0.0 34.40246978574605" Properties=species:S:1:pos:R:3:initial_magmoms:R:1 pbc="T T T"
Si       1.27861450      -1.41328782       1.37859374       0.00000000
Si       1.51679515       1.36961433      -1.22414789       0.00000000
Si      -1.47181779       1.29718899       1.36833148       0.00000000
Si      -0.80723466      -1.91060523      -1.26851300       0.00000000
Si       2.68973379      -2.66882002      -0.13433484       0.00000000
Si       2.61710483      -0.06436179       2.74735525       0.00000000
Si      -0.09469377       2.65224006       2.74470626       0.00000000
Si      -2.73225654      -2.78423956      -0.10133253       0.00000000
Si      -0.09901062      -2.77942423       2.74398381       0.00000000
Si      -2.90452329       2.62883133      -0.05982937       0.00000000
