10
Lattice="16.28999089631971 0.0 0.0 0.0 16.28999089631971 0.0 0.0 0.0 34.40246978574605" Properties=species:S:1:pos:R:3:initial_magmoms:R:1 pbc="T T T"
Si      -1.35698958      -1.35698958      -1.35728140       0.00000000
Si       1.35778085      -1.35707103       1.35690297       0.00000000
Si      -1.35773892       1.35785295       1.35700618       0.00000000
Si       1.35867876       1.35782037      -1.35717819       0.00000000
Si      -2.71164969      -0.00462636      -2.71690217       0.00000000
Si      -2.71453302       0.00022806       2.71404676       0.00000000
Si      -0.00138465      -2.71329661       2.71549167       0.00000000
Si       2.71362308      -0.00180819      -2.71518204       0.00000000
Si       2.71472265      -2.71435383      -0.00041283       0.00000000
Si       2.71473894       0.00074934       2.71463160       0.00000000
