10
Lattice="16.28999089631971 0.0 0.0 0.0 16.28999089631971 0.0 0.0 0.0 34.40246978574605" Properties=species:S:1:pos:R:3:initial_magmoms:R:1 pbc="T T T"
Si       1.35726651       1.35638685       1.35831347       0.00000000
Si      -1.35800608      -1.35829278       1.35803825       0.00000000
Si      -1.36187006       1.35723393      -1.35662775       0.00000000
Si       1.35870003      -1.36332639      -1.35735020       0.00000000
Si      -2.68813377      -0.01418859      -2.70068139       0.00000000
Si       2.71329498       2.71458189       0.00048163       0.00000000
Si      -0.00053757       2.71287144       2.71501003       0.00000000
Si       0.01557324       2.70845685      -2.72027017       0.00000000
Si      -2.71436927      -0.00083079       2.71473481       0.00000000
Si      -2.71387232       2.71595025       0.00086006       0.00000000
