10
Lattice="16.28999089631971 0.0 0.0 0.0 16.28999089631971 0.0 0.0 0.0 34.40246978574605" Properties=species:S:1:pos:R:3:initial_magmoms:R:1 pbc="T T T"
Si      -1.35079938       1.35635427      -1.36278580       0.00000000
Si       1.36739889       1.34987085       1.36660447       0.00000000
Si       1.36677987      -1.36130643      -1.36216655       0.00000000
Si      -1.36930482      -1.35353610       1.38679873       0.00000000
Si      -2.70296712       2.70371646      -0.00581402       0.00000000
Si      -2.71077003      -2.71586880      -0.00443792       0.00000000
Si      -2.70899442      -0.00333945      -2.72034242       0.00000000
Si       0.00599472       2.71112841      -2.72099606       0.00000000
Si       2.73001452       2.70275535      -0.00791257       0.00000000
Si       2.71945260      -2.71915938      -0.00653647       0.00000000
