10
Lattice="16.28999089631971 0.0 0.0 0.0 16.28999089631971 0.0 0.0 0.0 34.40246978574605" Properties=species:S:1:pos:R:3:initial_magmoms:R:1 pbc="T T T"
Si      -1.37054286      -1.32877530       1.34806153       0.00000000
Si      -1.35267273       1.35785295      -1.35563008       0.00000000
Si       1.35910143      -1.35664749      -1.35662775       0.00000000
Si       1.35848241       1.37609775       1.37241849       0.00000000
Si       0.08251734      -2.50424541       2.70437966       0.00000000
Si      -2.71337643       0.00045612      -2.71425318       0.00000000
Si       0.00214334      -2.71446786      -2.71435638       0.00000000
Si       2.71328588       2.71634121       0.00051604       0.00000000
Si      -2.71477737      -2.71500543       0.00030962       0.00000000
Si       0.00246782       2.71570590      -2.71483802       0.00000000
