10
Lattice="16.28999089631971 0.0 0.0 0.0 16.28999089631971 0.0 0.0 0.0 34.40246978574605" Properties=species:S:1:pos:R:3:initial_magmoms:R:1 pbc="T T T"
Si      -0.50534838       2.26013976      -0.50956967       0.00000000
Si      -1.25159328      -0.69100551      -1.92884435       0.00000000
Si       2.46213576      -0.19767915       0.15966195       0.00000000
Si      -0.81345744      -1.16665722       2.11609710       0.00000000
Si       0.14817384       1.01441088       3.18219583       0.00000000
Si       1.68881688       2.92353372      -0.99870426       0.00000000
Si       0.09107739      -3.24615717       1.41490557       0.00000000
Si       2.31627510      -2.45925243       1.14326351       0.00000000
Si      -3.01539303      -1.85635953      -0.84262016       0.00000000
Si       0.34391448      -1.76432103      -3.30095322       0.00000000
