10
Lattice="16.28999089631971 0.0 0.0 0.0 16.28999089631971 0.0 0.0 0.0 34.40246978574605" Properties=species:S:1:pos:R:3:initial_magmoms:R:1 pbc="T T T"
Si       1.02775306      -1.66987161       1.27447878       0.00000000
Si      -0.28655739      -1.31877324      -1.95134358       0.00000000
Si      -1.81048689       0.98391600       1.25272264       0.00000000
Si       1.77053308       1.62724068      -0.21763015       0.00000000
Si       2.35779084      -0.25291854       2.55411789       0.00000000
Si       1.26156343      -2.94674697      -1.44531737       0.00000000
Si      -0.50614659       2.33548101       2.60650600       0.00000000
Si       0.87065996       3.49097958       1.11257649       0.00000000
Si      -2.58486462       2.85312834       0.04678739       0.00000000
Si       3.00363884      -2.41839711      -0.07234843       0.00000000
