10
Lattice="16.28999089631971 0.0 0.0 0.0 16.28999089631971 0.0 0.0 0.0 34.40246978574605" Properties=species:S:1:pos:R:3:initial_magmoms:R:1 pbc="T T T"
Si       1.30492708      -1.37777562       1.29566310       0.00000000
Si      -1.30434030      -1.35156501      -1.35378335       0.00000000
Si       1.37680655       1.15549857      -1.49392950       0.00000000
Si      -1.42853526       1.35834165       1.28076682       0.00000000
Si      -2.07871803       0.51764733      -2.55971861       0.00000000
Si      -0.47982195       2.35535481      -2.41983809       0.00000000
Si       0.50614659      -2.33548101      -2.60650600       0.00000000
Si       2.27667967      -0.70824033      -2.82413614       0.00000000
Si       2.63119079      -0.00635310       2.63971674       0.00000000
Si       2.67990115       2.64963366      -0.14771397       0.00000000
