10
Lattice="16.28999089631971 0.0 0.0 0.0 16.28999089631971 0.0 0.0 0.0 34.40246978574605" Properties=species:S:1:pos:R:3:initial_magmoms:R:1 pbc="T T T"
Si      -1.36739889      -1.34987085      -1.36660447       0.00000000
Si       1.36261563       1.35288450      -1.37451705       0.00000000
Si      -0.93403602       1.71810630       1.36388668       0.00000000
Si       1.37323643      -1.33074639       1.43100593       0.00000000
Si       2.72908066       0.14178816       2.66381913       0.00000000
Si       2.71053612      -2.69293248      -0.00072245       0.00000000
Si       2.69534570       2.72758131       0.00602044       0.00000000
Si      -2.71164969       2.72023452       0.01162804       0.00000000
Si      -0.00061902      -2.71117728      -2.72877103       0.00000000
Si      -2.73670371      -2.70340695       0.02019426       0.00000000
