10
Lattice="16.28999089631971 0.0 0.0 0.0 16.28999089631971 0.0 0.0 0.0 34.40246978574605" Properties=species:S:1:pos:R:3:initial_magmoms:R:1 pbc="T T T"
Si      -1.26314289      -1.93842855      -0.07651114       0.00000000
Si       1.51746237      -0.58828077       1.75590304       0.00000000
Si      -1.55268135       1.56079377       0.94304103       0.00000000
Si       0.77954166       0.78317433      -2.14148614       0.00000000
Si       3.39579615       0.57831129       0.79903221       0.00000000
Si      -2.54171241      -1.72289556       1.86726390       0.00000000
Si      -2.20113738       0.37292697       2.90597825       0.00000000
Si       1.91137086      -2.97023715       1.68451787       0.00000000
Si      -2.59388928      -2.32666812      -1.98337230       0.00000000
Si       1.71357768      -0.93493197      -3.50537281       0.00000000
