10
Lattice="16.28999089631971 0.0 0.0 0.0 16.28999089631971 0.0 0.0 0.0 34.40246978574605" Properties=species:S:1:pos:R:3:initial_magmoms:R:1 pbc="T T T"
Si       0.93403602      -1.71810630      -1.36388668       0.00000000
Si      -0.77954166      -0.78317433       2.14148614       0.00000000
Si      -1.77761367       1.00212822      -1.35225864       0.00000000
Si       1.75506831       1.85160285       0.06560555       0.00000000
Si       2.29665165      -0.36522180      -2.73840372       0.00000000
Si      -0.43629507       2.36512881      -2.73737165       0.00000000
Si       2.30727245      -3.04885269       0.06711926       0.00000000
Si       2.61625449      -0.20486304       2.94051835       0.00000000
Si      -2.33222301       0.77761944       3.08452716       0.00000000
Si      -2.04268455      -2.72160288       2.06497500       0.00000000
