10
Lattice="16.28999089631971 0.0 0.0 0.0 16.28999089631971 0.0 0.0 0.0 34.40246978574605" Properties=species:S:1:pos:R:3:initial_magmoms:R:1 pbc="T T T"
Si      -1.12997214       1.09108791       1.71272792       0.00000000
Si       2.19416526       0.66339396      -0.48913459       0.00000000
Si       0.50534838      -2.26013976       0.50956967       0.00000000
Si      -1.31805648       0.74142306      -1.89654041       0.00000000
Si      -0.74624490      -2.95114527      -1.41927468       0.00000000
Si      -1.65863151      -1.35439947      -2.93525476       0.00000000
Si       2.14364997       2.98680408      -0.80856170       0.00000000
Si      -3.10199067       1.99474308      -0.88386875       0.00000000
Si      -3.43388313       1.08157455       1.23143709       0.00000000
Si      -0.61201530       3.37004262       1.70182233       0.00000000
