10
Lattice="16.28999089631971 0.0 0.0 0.0 16.28999089631971 0.0 0.0 0.0 34.40246978574605" Properties=species:S:1:pos:R:3:initial_magmoms:R:1 pbc="T T T"
Si      -2.01150549       0.68137812      -0.98053974       0.00000000
Si       1.68521679       0.37185183      -1.58808770       0.00000000
Si       0.29903553       1.92498930       1.33292444       0.00000000
Si      -0.37154232      -2.19695085       0.86143832       0.00000000
Si      -3.58557561      -0.79632036      -0.13375688       0.00000000
Si       0.46934748       0.70970643      -3.63510460       0.00000000
Si      -1.91164779       2.61900846       1.96066665       0.00000000
Si      -2.50364268      -2.91410181       0.02236162       0.00000000
Si       1.55193201       3.52857690       0.04269349       0.00000000
Si      -1.87804152       0.86902263      -3.27418809       0.00000000
