10
Lattice="16.28999089631971 0.0 0.0 0.0 16.28999089631971 0.0 0.0 0.0 34.40246978574605" Properties=species:S:1:pos:R:3:initial_magmoms:R:1 pbc="T T T"
Si       1.43387838       0.98147250      -1.56445319       0.00000000
Si       1.85662850      -1.19985624       0.92590859       0.00000000
Si      -1.59889608      -1.83770748      -0.13988052       0.00000000
Si      -1.29875283       2.15676342       0.92893601       0.00000000
Si      -2.22912360       0.53431200       2.40364140       0.00000000
Si       0.47982195      -2.35535481       2.41983809       0.00000000
Si      -0.12455334       1.18903968      -3.35861179       0.00000000
Si      -3.47540634      -0.80508438       0.85245928       0.00000000
Si       0.38838618       3.08029239       2.34184077       0.00000000
Si       3.15972310       0.29427885       2.27212412       0.00000000
