10
Lattice="16.28999089631971 0.0 0.0 0.0 16.28999089631971 0.0 0.0 0.0 34.40246978574605" Properties=species:S:1:pos:R:3:initial_magmoms:R:1 pbc="T T T"
Si      -0.82878633       1.85407893      -1.40499765       0.00000000
Si       1.87431341      -0.84212784      -1.42347179       0.00000000
Si       0.60692958       0.42992568       2.39658059       0.00000000
Si      -1.75506831      -1.85160285      -0.06560555       0.00000000
Si      -2.19136338       0.51352596      -2.80297719       0.00000000
Si       0.54158334      -2.21682465      -2.80400927       0.00000000
Si       0.86118618      -2.05646589       2.87491280       0.00000000
Si       2.23357796       2.23956549       2.10326497       0.00000000
Si      -3.53268198      -0.84947463      -1.41786418       0.00000000
Si       3.32196173      -2.07718677      -0.03443689       0.00000000
