10
Lattice="16.28999089631971 0.0 0.0 0.0 16.28999089631971 0.0 0.0 0.0 34.40246978574605" Properties=species:S:1:pos:R:3:initial_magmoms:R:1 pbc="T T T"
Si       2.11222723       0.01987380      -0.98931238       0.00000000
Si       0.05051529      -2.32341012       0.31942711       0.00000000
Si      -0.52100307       1.08897021       2.03559527       0.00000000
Si       0.37022283       1.61249823      -2.09187775       0.00000000
Si      -1.95359454       1.20505275      -2.72835820       0.00000000
Si       3.03494007       1.88173935       0.01613477       0.00000000
Si      -2.75566527       0.38323854       2.51038403       0.00000000
Si      -2.14364997      -2.98680408       0.80856170       0.00000000
Si       0.25689330      -3.20658876      -2.23805392       0.00000000
Si      -0.74717343       3.46917771       1.76113222       0.00000000
