10
Lattice="16.28999089631971 0.0 0.0 0.0 16.28999089631971 0.0 0.0 0.0 34.40246978574605" Properties=species:S:1:pos:R:3:initial_magmoms:R:1 pbc="T T T"
Si       0.75831905      -2.23166484       0.30989762       0.00000000
Si      -1.58156908       0.33673059       1.76863196       0.00000000
Si       1.87555078       1.60438581      -0.12350494       0.00000000
Si      -1.75460146       0.19280844      -2.01860045       0.00000000
Si      -0.90080998       2.65429260       2.33641064       0.00000000
Si      -1.16478943      -3.37439205       0.98047094       0.00000000
Si       1.89977401      -2.67587685      -1.77654453       0.00000000
Si      -1.72742974      -1.92484269       2.75223352       0.00000000
Si      -2.14850995       2.57476482      -1.94721528       0.00000000
Si       2.15948548      -2.39516757       2.18510849       0.00000000
