10
Lattice="16.28999089631971 0.0 0.0 0.0 16.28999089631971 0.0 0.0 0.0 34.40246978574605" Properties=species:S:1:pos:R:3:initial_magmoms:R:1 pbc="T T T"
Si       1.41134442       1.86864219       0.17428301       0.00000000
Si       1.32376938      -1.49185449      -1.24891356       0.00000000
Si      -2.23579828       0.82920987      -0.27226130       0.00000000
Si       0.08660090      -1.39962051       1.94890100       0.00000000
Si       2.96516607      -1.48721184       0.42435470       0.00000000
Si      -0.94904888      -3.16156809       0.86240159       0.00000000
Si       3.23940822       0.73629171       1.24863834       0.00000000
Si      -0.20636824       3.51460008       0.98284471       0.00000000
Si      -2.33505325       2.54912436       1.32064275       0.00000000
Si      -2.37002788       1.77973137      -2.37944815       0.00000000
