10
Lattice="16.28999089631971 0.0 0.0 0.0 16.28999089631971 0.0 0.0 0.0 34.40246978574605" Properties=species:S:1:pos:R:3:initial_magmoms:R:1 pbc="T T T"
Si       1.32873295      -1.30476384       1.42378829       0.00000000
Si       0.91679143       1.71848097      -1.34047032       0.00000000
Si      -1.30309460      -1.49413509      -1.34621553       0.00000000
Si      -1.39452834       1.39308822       1.41522207       0.00000000
Si       2.21246545       0.36171945      -2.73611049       0.00000000
Si       2.74979110      -2.56616370      -0.00479915       0.00000000
Si      -2.67990115      -2.64963366       0.14771397       0.00000000
Si       2.66164591       2.77571826       0.03210440       0.00000000
Si      -0.04871036      -2.65598676       2.78743071       0.00000000
Si       2.67256021       0.05866029       2.78873800       0.00000000
