10
Lattice="16.28999089631971 0.0 0.0 0.0 16.28999089631971 0.0 0.0 0.0 34.40246978574605" Properties=species:S:1:pos:R:3:initial_magmoms:R:1 pbc="T T T"
Si       1.35584423       1.47253455       1.23281319       0.00000000
Si       1.33729969      -1.36218609      -1.43172839       0.00000000
Si      -1.37323643       1.33074639      -1.43100593       0.00000000
Si      -0.80246741      -1.74255759       1.49585462       0.00000000
Si       2.99016129      -0.13108563       2.07632782       0.00000000
Si      -2.65986950      -2.66825313       0.01458666       0.00000000
Si       2.66502918      -2.70233181      -0.01747646       0.00000000
Si      -2.30727245       3.04885269      -0.06711926       0.00000000
Si      -0.01062080       2.68363089      -2.80552298       0.00000000
Si       2.69210316      -0.02194263      -2.80363084       0.00000000
