10
Lattice="16.28999089631971 0.0 0.0 0.0 16.28999089631971 0.0 0.0 0.0 34.40246978574605" Properties=species:S:1:pos:R:3:initial_magmoms:R:1 pbc="T T T"
Si       1.57270176      -1.60800219       0.59499105       0.00000000
Si       0.85147830       1.38013767      -1.68895580       0.00000000
Si      -0.63962685       1.61362224       1.60515133       0.00000000
Si      -2.07927189      -1.19073384      -0.33707559       0.00000000
Si      -2.28124020       2.37452814       0.07602950       0.00000000
Si       0.76154121      -3.15635040      -1.07972212       0.00000000
Si       1.18229562      -1.60446726       2.94977262       0.00000000
Si      -1.85844628      -2.71259451       1.49950129       0.00000000
Si      -1.08131391       2.81566134      -1.99592920       0.00000000
Si       1.15118172       3.17161413       1.46000723       0.00000000
