10
Lattice="16.28999089631971 0.0 0.0 0.0 16.28999089631971 0.0 0.0 0.0 34.40246978574605" Properties=species:S:1:pos:R:3:initial_magmoms:R:1 pbc="T T T"
Si       1.35823975       1.35651717       1.35707498       0.00000000
Si      -1.35600886      -1.35635427       1.35993039       0.00000000
Si       1.35720534      -1.35811359      -1.35721259       0.00000000
Si      -1.35835462       1.35760860      -1.35755662       0.00000000
Si       2.70779947       0.01055592       2.71673015       0.00000000
Si       0.00115991      -2.71322982      -2.71449399       0.00000000
Si      -0.00110815       2.71493823      -2.71408116       0.00000000
Si       2.71464127       2.71505854       0.00041283       0.00000000
Si      -2.71540936      -0.00037467      -2.71466601       0.00000000
Si      -2.71526275      -2.71542897      -0.00024082       0.00000000
