10
Lattice="16.28999089631971 0.0 0.0 0.0 16.28999089631971 0.0 0.0 0.0 34.40246978574605" Properties=species:S:1:pos:R:3:initial_magmoms:R:1 pbc="T T T"
Si       0.06704964       1.08956709       2.06473418       0.00000000
Si      -1.88178822       1.04366839      -1.01700638       0.00000000
Si       2.02129578       0.30714536      -1.24210187       0.00000000
Si      -0.17381430      -2.39392953       0.16224214       0.00000000
Si       3.45468546      -0.27569196       0.47864183       0.00000000
Si      -1.06066145       1.15686597      -3.21226361       0.00000000
Si      -0.37787913      -1.14194529      -3.37302644       0.00000000
Si      -1.14694958      -2.87867106      -1.97587255       0.00000000
Si       0.57919095       3.36135095       1.42591436       0.00000000
Si      -3.71077145      -0.38169099      -0.49481100       0.00000000
