10
Lattice="16.28999089631971 0.0 0.0 0.0 16.28999089631971 0.0 0.0 0.0 34.385447050020396" Properties=species:S:1:pos:R:3:initial_magmoms:R:1 pbc="T T T"
Si      -0.83278064      -2.21319198      -0.25479631       0.00000000
Si       0.92551635       0.54296199      -2.22594316       0.00000000
Si      -2.19966965       1.30245066       0.05604831       0.00000000
Si       1.68075333       0.54068139       1.98387777       0.00000000
Si      -0.86118877       3.29492521       0.15576616       0.00000000
Si       0.67996089       2.91259566      -1.71817298       0.00000000
Si      -1.41453401      -2.75568156       2.17053239       0.00000000
Si      -3.08802104      -2.08904589      -1.30702596       0.00000000
Si      -0.48247722      -0.44297397      -3.96110256       0.00000000
Si       0.74455074      -3.42720423      -1.96230979       0.00000000
