10
Lattice="16.28999089631971 0.0 0.0 0.0 16.28999089631971 0.0 0.0 0.0 34.385447050020396" Properties=species:S:1:pos:R:3:initial_magmoms:R:1 pbc="T T T"
Si       1.35915615       1.34948641      -1.39470890       0.00000000
Si      -1.34980569      -1.36470368      -1.39347102       0.00000000
Si       1.39124745      -1.41488491       1.42146079       0.00000000
Si      -1.43202132       1.47376282       1.57399472       0.00000000
Si      -0.26280657      -2.69842288       2.66779640       0.00000000
Si      -2.69374698       2.71291054      -0.04050608       0.00000000
Si       2.73022029       2.70155641      -0.01994357       0.00000000
Si      -2.71578735      -2.72025148      -0.02334773       0.00000000
Si       2.71730232      -2.74162396      -0.02970904       0.00000000
Si       0.00555489       2.70869143      -2.75809263       0.00000000
