10
Lattice="16.28999089631971 0.0 0.0 0.0 16.28999089631971 0.0 0.0 0.0 34.385447050020396" Properties=species:S:1:pos:R:3:initial_magmoms:R:1 pbc="T T T"
Si       1.19198817      -1.43616061      -1.49700566       0.00000000
Si      -2.29094415      -0.70792919      -0.00453888       0.00000000
Si       0.40962834       2.13799734      -1.26383781       0.00000000
Si       0.63892638      -1.78565183       2.19805655       0.00000000
Si      -2.04538869      -3.07756286      -0.51230906       0.00000000
Si      -0.23025915       1.48452399      -3.46416380       0.00000000
Si      -0.93502971       3.69237285      -0.06619202       0.00000000
Si       0.10770948      -3.57720974      -1.58898678       0.00000000
Si       3.23969004      -2.17975580      -0.38381057       0.00000000
Si       1.15307136      -0.50406473      -3.74275485       0.00000000
