10
Lattice="16.28999089631971 0.0 0.0 0.0 16.28999089631971 0.0 0.0 0.0 34.385447050020396" Properties=species:S:1:pos:R:3:initial_magmoms:R:1 pbc="T T T"
Si       1.58532651      -1.56527352      -0.68554304       0.00000000
Si      -1.29927411       1.41633405      -1.32659129       0.00000000
Si       1.20194136       1.32248736       1.52093794       0.00000000
Si      -1.83632283      -1.04076810       1.07045395       0.00000000
Si      -1.72700064       2.95358877       0.51543814       0.00000000
Si       0.29170503      -3.50950131      -0.37084725       0.00000000
Si       3.16014597      -1.21427289       1.06649962       0.00000000
Si      -0.52269723       2.46141900       2.54177367       0.00000000
Si      -3.32048844       0.06351471      -1.65806718       0.00000000
Si       0.24941619       2.16601614      -3.03434547       0.00000000
