10
Lattice="16.28999089631971 0.0 0.0 0.0 16.28999089631971 0.0 0.0 0.0 34.385447050020396" Properties=species:S:1:pos:R:3:initial_magmoms:R:1 pbc="T T T"
Si       1.25856540      -1.88841825       0.70558977       0.00000000
Si       1.33087671       1.37556018      -1.43002277       0.00000000
Si      -1.73307681       1.18555362       1.20589830       0.00000000
Si      -1.49734422      -0.68993037      -1.81496807       0.00000000
Si       0.28903347       1.51327584       2.15342421       0.00000000
Si       0.01725111      -2.12662692      -2.90134249       0.00000000
Si       0.76494582      -3.40658109      -1.08768107       0.00000000
Si       3.46665861      -0.98635950       1.02757527       0.00000000
Si      -3.33455323      -0.43813584       1.90715550       0.00000000
Si      -2.10352770       1.26377820      -3.04758388       0.00000000
