10
Lattice="16.28999089631971 0.0 0.0 0.0 16.28999089631971 0.0 0.0 0.0 34.385447050020396" Properties=species:S:1:pos:R:3:initial_magmoms:R:1 pbc="T T T"
Si       1.35637056       1.35529542      -1.35901678       0.00000000
Si       1.35734796      -1.35586557       1.35750382       0.00000000
Si      -1.35900954      -1.35612621      -1.35612840       0.00000000
Si      -1.35747828       1.35874890       1.35719435       0.00000000
Si      -2.70949452      -0.00710244      -2.71218804       0.00000000
Si       0.00259011      -2.71305063      -2.71129402       0.00000000
Si       2.71440270      -2.71342530      -0.00034385       0.00000000
Si      -0.00009774      -2.71388142       2.71431994       0.00000000
Si       2.71471221       0.00193851       2.71411362       0.00000000
Si      -2.71520417      -2.71365336       0.00116911       0.00000000
