10
Lattice="16.28999089631971 0.0 0.0 0.0 16.28999089631971 0.0 0.0 0.0 34.385447050020396" Properties=species:S:1:pos:R:3:initial_magmoms:R:1 pbc="T T T"
Si       1.80410121       1.49789808       0.02902133       0.00000000
Si      -2.13728058       0.18150318      -0.98933864       0.00000000
Si       1.19426877      -1.93875435      -0.63011367       0.00000000
Si      -0.37183554      -0.65765988       2.32858378       0.00000000
Si      -1.68120945      -2.47524921       1.55164417       0.00000000
Si       0.87188967       2.96383518       1.52344808       0.00000000
Si       1.96656138      -0.36176832       2.89068299       0.00000000
Si      -2.88551286      -1.98307944      -0.47469136       0.00000000
Si      -3.06856359       1.78113231       0.49886434       0.00000000
Si       3.41888004       0.20041587       1.06870029       0.00000000
