10
Lattice="16.28999089631971 0.0 0.0 0.0 16.28999089631971 0.0 0.0 0.0 34.385447050020396" Properties=species:S:1:pos:R:3:initial_magmoms:R:1 pbc="T T T"
Si       1.01511135       0.74417607      -2.01020874       0.00000000
Si      -1.90410552      -1.34846991      -0.64878498       0.00000000
Si       2.13545610      -0.50459904       1.09056945       0.00000000
Si      -1.00071099       1.94272911       1.18516387       0.00000000
Si       2.50111773      -2.25311877      -0.64720325       0.00000000
Si      -1.80672390      -0.78499881      -2.98813140       0.00000000
Si       1.20871800      -0.45809109       3.35677799       0.00000000
Si       1.82654883       2.89224063      -1.24874259       0.00000000
Si      -3.61447407      -0.30446010       0.77288213       0.00000000
Si       2.11978512      -1.29008655      -2.77793305       0.00000000
