10
Lattice="16.28999089631971 0.0 0.0 0.0 16.28999089631971 0.0 0.0 0.0 34.385447050020396" Properties=species:S:1:pos:R:3:initial_magmoms:R:1 pbc="T T T"
Si       0.92673810      -0.04650795      -2.26620854       0.00000000
Si      -1.11511566      -1.74902472       1.35788692       0.00000000
Si       1.78562835       1.09444365       1.38243814       0.00000000
Si      -1.62784341       1.92832875       0.08806118       0.00000000
Si      -1.20871800       0.45809109      -3.35677799       0.00000000
Si      -2.23484139      -0.26772615       2.82634920       0.00000000
Si       0.48042468       2.44946214       2.82052774       0.00000000
Si      -3.45028716       1.07639433       1.37666826       0.00000000
Si       2.74577724       2.77169463      -0.01258508       0.00000000
Si      -2.20942899       2.40082020      -2.17161412       0.00000000
