10
Lattice="16.28999089631971 0.0 0.0 0.0 16.28999089631971 0.0 0.0 0.0 34.385447050020396" Properties=species:S:1:pos:R:3:initial_magmoms:R:1 pbc="T T T"
Si      -0.58158558       0.47249145      -2.25967530       0.00000000
Si      -1.82244375      -0.85193442       1.28860708       0.00000000
Si       0.86462433       1.90894365       1.33758918       0.00000000
Si       1.62784341      -1.92832875      -0.08806118       0.00000000
Si       2.10826809       0.52113339       2.73246656       0.00000000
Si      -0.60699798      -2.19605490       2.73828802       0.00000000
Si       3.41347176      -0.83388510       1.29437696       0.00000000
Si      -2.80824939      -2.50551603      -0.13919237       0.00000000
Si       0.41912541      -1.47023766      -3.44483917       0.00000000
Si       2.72191239       2.78901090       0.14525663       0.00000000
