10
Lattice="16.28999089631971 0.0 0.0 0.0 16.28999089631971 0.0 0.0 0.0 34.385447050020396" Properties=species:S:1:pos:R:3:initial_magmoms:R:1 pbc="T T T"
Si      -1.67035868       0.83351043      -1.38016384       0.00000000
Si       0.44940852      -1.79762498      -1.44883162       0.00000000
Si      -0.15789897      -1.16003045       2.07619445       0.00000000
Si       1.87186761       1.47852927      -0.00457327       0.00000000
Si       2.41727310      -2.18379572      -0.33367656       0.00000000
Si      -0.43205967       0.82552833       3.32314900       0.00000000
Si       3.33760923      -0.10070152      -0.92359362       0.00000000
Si      -2.77474412      -1.27472182      -1.67931740       0.00000000
Si       1.12417290       2.75848344      -1.81823469       0.00000000
Si       2.04770187      -2.06147411       1.98868344       0.00000000
