10
Lattice="16.28999089631971 0.0 0.0 0.0 16.28999089631971 0.0 0.0 0.0 34.385447050020396" Properties=species:S:1:pos:R:3:initial_magmoms:R:1 pbc="T T T"
Si       1.35874890      -1.35757602       1.35310248       0.00000000
Si      -1.35575154       1.36001952       1.35619718       0.00000000
Si      -1.35711990      -1.35734796      -1.35767575       0.00000000
Si       1.35783666       1.35752715      -1.35760698       0.00000000
Si       0.01242927      -2.71010214       2.69351673       0.00000000
Si      -2.71170996      -0.01000206       2.69809000       0.00000000
Si       2.71513575       2.71365336      -0.00013754       0.00000000
Si      -2.71509014      -2.71370223      -0.00127226       0.00000000
Si       2.71507059      -2.71415835      -0.00075648       0.00000000
Si      -2.71624347       2.71308321      -0.00010316       0.00000000
