10
Lattice="16.28999089631971 0.0 0.0 0.0 16.28999089631971 0.0 0.0 0.0 34.385447050020396" Properties=species:S:1:pos:R:3:initial_magmoms:R:1 pbc="T T T"
Si       2.01618072      -1.19061981      -0.07141861       0.00000000
Si      -0.41516694       0.48503475      -2.28711490       0.00000000
Si       0.48728277       2.16867371       0.89027411       0.00000000
Si      -0.74209095      -1.38704463       1.96433853       0.00000000
Si       1.38798945      -2.47855608       1.79946022       0.00000000
Si       3.53882331       0.45341586       0.74138504       0.00000000
Si       0.39104145       1.84181828       3.24915148       0.00000000
Si       2.72872161       2.56968627       0.23956354       0.00000000
Si      -1.05090048       0.07095924       3.80891248       0.00000000
Si      -3.86786502      -0.48542571      -1.07076342       0.00000000
