10
Lattice="16.28999089631971 0.0 0.0 0.0 16.28999089631971 0.0 0.0 0.0 34.385447050020396" Properties=species:S:1:pos:R:3:initial_magmoms:R:1 pbc="T T T"
Si      -2.09229153       0.41974117       0.94271194       0.00000000
Si      -0.30221045      -0.09873369      -2.31764920       0.00000000
Si       1.10438544       2.10823225       0.29915356       0.00000000
Si       1.39587707      -1.90434402       0.47775167       0.00000000
Si       3.22415264      -0.52290315       0.23048578       0.00000000
Si       2.77474412       1.27472182       1.67931740       0.00000000
Si      -0.17107921       2.22222967      -2.98558688       0.00000000
Si      -2.23196199      -1.39746438      -2.67016900       0.00000000
Si       1.36772795      -1.58142735      -3.14259092       0.00000000
Si      -3.64492401      -1.29545640       0.55044254       0.00000000
