10
Lattice="16.28999089631971 0.0 0.0 0.0 16.28999089631971 0.0 0.0 0.0 34.385447050020396" Properties=species:S:1:pos:R:3:initial_magmoms:R:1 pbc="T T T"
Si      -1.23194754      -1.92805182       0.30754361       0.00000000
Si      -0.30880953       1.45800387       1.84457395       0.00000000
Si       2.13008040      -1.09151145      -0.16487831       0.00000000
Si       0.74209095       1.38704463      -1.96433853       0.00000000
Si       2.75827167       0.19642482      -2.03575714       0.00000000
Si       3.06082584      -0.02469564       1.68818885       0.00000000
Si       1.13313240       3.22886291       1.28481295       0.00000000
Si      -0.46581255      -2.98323657      -2.06749493       0.00000000
Si      -0.95242743      -2.49136002       2.63409864       0.00000000
Si       1.22937372       3.55571834      -1.07406442       0.00000000
