10
Lattice="16.28999089631971 0.0 0.0 0.0 16.28999089631971 0.0 0.0 0.0 34.385447050020396" Properties=species:S:1:pos:R:3:initial_magmoms:R:1 pbc="T T T"
Si      -1.96786458       0.38617074      -1.11515506       0.00000000
Si       0.44585730      -2.02360896      -1.04253295       0.00000000
Si       0.92033613       2.08309419      -0.58991706       0.00000000
Si      -0.36957123       0.12232161       2.32236001       0.00000000
Si      -2.41727310       2.18379572       0.33367656       0.00000000
Si       2.99732742       1.75806797       0.37782750       0.00000000
Si       2.57362452      -2.40644025      -0.04143449       0.00000000
Si       0.20807217      -1.23940836      -3.34374590       0.00000000
Si      -2.57517207       1.02376527       2.40987102       0.00000000
Si       3.65158269      -0.37439307      -0.39804616       0.00000000
