10
Lattice="16.28999089631971 0.0 0.0 0.0 16.28999089631971 0.0 0.0 0.0 34.385447050020396" Properties=species:S:1:pos:R:3:initial_magmoms:R:1 pbc="T T T"
Si       1.36016613       1.35272160       1.36519585       0.00000000
Si      -1.35314514      -1.35966114       1.36915018       0.00000000
Si       1.38290697      -1.29936370      -1.40944995       0.00000000
Si      -1.12648608       1.49499846      -1.45859709       0.00000000
Si       0.74323125       2.37117240      -2.62823076       0.00000000
Si      -2.15997255      -0.08552250      -2.94445296       0.00000000
Si       2.33111529       0.55964295      -2.77053127       0.00000000
Si      -2.70047475      -2.72101092       0.00074616       0.00000000
Si      -2.70945054       2.71339272      -0.02279756       0.00000000
Si      -2.71060713      -0.00278559       2.72734171       0.00000000
