10
Lattice="16.28999089631971 0.0 0.0 0.0 16.28999089631971 0.0 0.0 0.0 34.385447050020396" Properties=species:S:1:pos:R:3:initial_magmoms:R:1 pbc="T T T"
Si      -1.35360126       1.35920502      -1.36338374       0.00000000
Si       1.36114353      -1.35763792      -1.36204270       0.00000000
Si       1.37106414       1.35207000       1.37476533       0.00000000
Si      -1.35915615      -1.34948641       1.39470890       0.00000000
Si      -2.71145421       2.71132389      -0.00391994       0.00000000
Si      -2.70896184      -2.71419008       0.00123788       0.00000000
Si      -2.71158453       0.00027693      -2.71947776       0.00000000
Si       2.71976211      -2.71367684      -0.00295715       0.00000000
Si       2.72181465       2.71288773      -0.00336978       0.00000000
Si       0.00322542      -2.71482007      -2.71999354       0.00000000
