10
Lattice="16.28999089631971 0.0 0.0 0.0 16.28999089631971 0.0 0.0 0.0 34.385447050020396" Properties=species:S:1:pos:R:3:initial_magmoms:R:1 pbc="T T T"
Si       0.86713299       1.75557330       1.30131797       0.00000000
Si      -1.81100817      -1.05572232       1.10683377       0.00000000
Si      -0.87296481       0.87369786      -2.03823290       0.00000000
Si       1.56810798      -1.81726353      -0.21305235       0.00000000
Si      -2.03128155      -1.16317116      -2.58974139       0.00000000
Si      -0.85226022      -3.04264620       1.73863233       0.00000000
Si       0.10295280      -3.65475924      -0.36400455       0.00000000
Si      -0.22542102       1.35710361       3.42131951       0.00000000
Si      -0.27078867       3.65927157       0.47555100       0.00000000
Si      -3.38582763      -1.40672295      -0.64520889       0.00000000
