10
Lattice="16.28999089631971 0.0 0.0 0.0 16.28999089631971 0.0 0.0 0.0 34.385447050020396" Properties=species:S:1:pos:R:3:initial_magmoms:R:1 pbc="T T T"
Si       2.16819900       0.82152099      -0.03827102       0.00000000
Si      -0.08638587      -1.69301970      -1.60198449       0.00000000
Si      -2.25468261       0.63651546       0.22192380       0.00000000
Si      -0.11823282      -1.12471047       2.11305567       0.00000000
Si      -3.14030475      -1.61846037       0.20968257       0.00000000
Si      -2.63601522       1.59954768      -1.90880600       0.00000000
Si       3.44378745      -1.17411804       0.28233906       0.00000000
Si      -2.35131489      -2.08393083      -1.98796135       0.00000000
Si      -2.06027775      -2.35343259       2.07787934       0.00000000
Si       0.77696784      -3.70064817      -0.65363333       0.00000000
