10
Lattice="16.28999089631971 0.0 0.0 0.0 16.28999089631971 0.0 0.0 0.0 34.385447050020396" Properties=species:S:1:pos:R:3:initial_magmoms:R:1 pbc="T T T"
Si       0.38133261      -0.96303222       2.13072980       0.00000000
Si       1.88775036       0.73722024      -1.28983323       0.00000000
Si      -1.10467377       2.03426262       0.76772431       0.00000000
Si      -0.74888388      -1.99454760      -1.33604729       0.00000000
Si       0.76310505       2.48085297      -2.45460651       0.00000000
Si       2.63601522      -1.59954768       1.90880600       0.00000000
Si       0.28470033      -3.68347851      -0.07915534       0.00000000
Si      -2.11978512       1.29008655       2.77793305       0.00000000
Si      -2.70334179       2.44999971      -0.88346578       0.00000000
Si      -0.50428953      -3.21800805       2.11848858       0.00000000
