10
Lattice="16.28999089631971 0.0 0.0 0.0 16.28999089631971 0.0 0.0 0.0 34.385447050020396" Properties=species:S:1:pos:R:3:initial_magmoms:R:1 pbc="T T T"
Si      -1.35602847       1.35404109      -1.35815715       0.00000000
Si       1.35672894       1.35498591       1.35691927       0.00000000
Si      -1.35848826      -1.35993807       1.35664419       0.00000000
Si       1.35560493      -1.36076886      -1.36407145       0.00000000
Si       0.00500103       2.70293454      -2.71334683       0.00000000
Si      -2.71026504      -0.01425375      -2.70752537       0.00000000
Si      -2.71652040       2.70878265      -0.00202874       0.00000000
Si      -0.00148239       2.71277370       2.71425117       0.00000000
Si       2.71463076      -0.00309510       2.71376977       0.00000000
Si       2.71446786       2.71524978      -0.00027508       0.00000000
