10
Lattice="16.28999089631971 0.0 0.0 0.0 16.28999089631971 0.0 0.0 0.0 34.385447050020396" Properties=species:S:1:pos:R:3:initial_magmoms:R:1 pbc="T T T"
Si      -0.96014889      -1.67725098       1.39502322       0.00000000
Si       1.77044607       1.06321572       1.27539274       0.00000000
Si       0.40405716      -1.21950198      -2.10545648       0.00000000
Si      -1.65170826       1.94564502       0.24590289       0.00000000
Si      -2.26535256      -0.32223249       2.83311282       0.00000000
Si       0.47684088       2.36920131       2.84616554       0.00000000
Si       0.06889041       0.63589644      -3.69241452       0.00000000
Si      -2.74577724      -2.77169463       0.01258508       0.00000000
Si       2.52853380       2.99024127      -0.05525744       0.00000000
Si      -3.50899632       1.06557777       1.43823544       0.00000000
