10
Lattice="16.28999089631971 0.0 0.0 0.0 16.28999089631971 0.0 0.0 0.0 34.385447050020396" Properties=species:S:1:pos:R:3:initial_magmoms:R:1 pbc="T T T"
Si       1.29057525      -1.35912357       1.31571173       0.00000000
Si      -0.83797389      -1.78267986      -1.28455093       0.00000000
Si       1.63867626       1.06285734      -1.33013162       0.00000000
Si      -1.44678006       1.38477674       1.28906643       0.00000000
Si      -2.09839635      -0.54814221      -2.89198074       0.00000000
Si       2.58418044      -2.66510916      -0.25506107       0.00000000
Si       2.61643464       0.02889846       2.65695466       0.00000000
Si       3.34226817      -0.73808361      -1.58571126       0.00000000
Si      -0.09837531      -2.68599294       2.66015251       0.00000000
Si      -2.69526195      -2.66274711      -0.09221838       0.00000000
