10
Lattice="16.28999089631971 0.0 0.0 0.0 16.28999089631971 0.0 0.0 0.0 34.385447050020396" Properties=species:S:1:pos:R:3:initial_magmoms:R:1 pbc="T T T"
Si      -1.29057525       1.35912357      -1.31571173       0.00000000
Si       1.32585939       1.38802203       1.34124294       0.00000000
Si      -1.38895056      -1.32686937       1.34444078       0.00000000
Si       1.29360519      -1.30598559      -1.57077280       0.00000000
Si      -2.12854914      -0.42355629      -2.60026266       0.00000000
Si       0.34810101       2.42198091      -2.64584334       0.00000000
Si       2.05169292       0.62103996      -2.90142299       0.00000000
Si      -0.47684088      -2.36920131      -2.84616554       0.00000000
Si       2.67729408      -2.66491368      -0.03439922       0.00000000
Si      -0.03272661      -2.67911856       2.70001902       0.00000000
