10
Lattice="16.28999089631971 0.0 0.0 0.0 16.28999089631971 0.0 0.0 0.0 34.385447050020396" Properties=species:S:1:pos:R:3:initial_magmoms:R:1 pbc="T T T"
Si      -1.55556535      -1.16815590       1.32798321       0.00000000
Si       1.25554686       1.55310489       1.25732452       0.00000000
Si      -0.99826816       1.56341646      -1.46300397       0.00000000
Si       0.52502344      -1.80579537      -1.51513234       0.00000000
Si      -1.71571234      -1.17498141      -1.81882478       0.00000000
Si       2.44127479       0.09834273       2.66809487       0.00000000
Si      -0.25192843      -2.61744462       2.64780056       0.00000000
Si      -0.26654669       2.82577743       2.63969591       0.00000000
Si       2.96209867       2.49297273      -0.20979127       0.00000000
Si       1.84761832      -0.92800872      -3.35815895       0.00000000
