10
Lattice="16.28999089631971 0.0 0.0 0.0 16.28999089631971 0.0 0.0 0.0 34.385447050020396" Properties=species:S:1:pos:R:3:initial_magmoms:R:1 pbc="T T T"
Si      -2.01618072       1.19061981       0.07141861       0.00000000
Si      -0.62819127      -1.28793627       1.87087883       0.00000000
Si       1.52264259       1.64403567       0.81280365       0.00000000
Si       0.61045146      -1.33359714      -1.89969385       0.00000000
Si      -2.75827167      -0.19642482       2.03575714       0.00000000
Si       1.16971974      -3.38586021      -0.65057302       0.00000000
Si      -2.43134766       1.67565456      -2.21569629       0.00000000
Si       0.30255417      -0.22112046       3.72394600       0.00000000
Si      -1.52889795       3.35929352       0.96169272       0.00000000
Si       0.71254089       3.76030608       0.31098216       0.00000000
