10
Lattice="16.28999089631971 0.0 0.0 0.0 16.28999089631971 0.0 0.0 0.0 34.385447050020396" Properties=species:S:1:pos:R:3:initial_magmoms:R:1 pbc="T T T"
Si      -0.96853824       1.09602378       1.84072278       0.00000000
Si      -0.94910427       0.97156818      -1.94618301       0.00000000
Si       2.25108252       0.78050277      -0.04972138       0.00000000
Si       0.14556744      -2.35403532      -0.57894810       0.00000000
Si       1.59788610      -1.79185113      -2.40093080       0.00000000
Si      -0.01689273      -0.49436892      -3.44060975       0.00000000
Si      -0.91077390      -0.65256111       3.40484887       0.00000000
Si      -2.19282948      -2.64992688      -1.14104731       0.00000000
Si       0.12885390       3.00361536      -2.30279468       0.00000000
Si       2.20491666       2.87026542      -1.17199423       0.00000000
