10
Lattice="16.28999089631971 0.0 0.0 0.0 16.28999089631971 0.0 0.0 0.0 34.385447050020396" Properties=species:S:1:pos:R:3:initial_magmoms:R:1 pbc="T T T"
Si       1.09509525      -0.84774789      -1.88160710       0.00000000
Si      -1.80669132       1.16712963      -0.95017359       0.00000000
Si      -1.00998000      -2.15879967       0.39371359       0.00000000
Si       1.89255591       0.06887412       1.66556322       0.00000000
Si       0.81150264      -2.97030231      -0.86489763       0.00000000
Si      -2.89833309       1.84352301       1.16116281       0.00000000
Si      -0.88857063       3.09580277      -2.03792343       0.00000000
Si      -3.26458116      -0.46747413      -2.07093348       0.00000000
Si      -3.20681682      -2.21605902      -0.50680739       0.00000000
Si       3.33195660      -0.33731703      -2.17488074       0.00000000
