10
Lattice="16.28999089631971 0.0 0.0 0.0 16.28999089631971 0.0 0.0 0.0 34.385447050020396" Properties=species:S:1:pos:R:3:initial_magmoms:R:1 pbc="T T T"
Si      -1.35707103       1.35688288      -1.35702243       0.00000000
Si       1.35754344       1.35634205       1.35771014       0.00000000
Si      -1.35739683      -1.35751397       1.35746944       0.00000000
Si       1.35757602      -1.35860540      -1.35746944       0.00000000
Si      -2.71404432      -0.00018135      -2.71352907       0.00000000
Si      -2.71397916       2.71448822       0.00034385       0.00000000
Si       0.00166158      -2.71531805      -2.71321960       0.00000000
Si      -0.00250866      -2.71145732       2.71744901       0.00000000
Si       2.71430024       0.00122267      -2.71504203       0.00000000
Si      -2.71489140      -2.71474790       0.00010316       0.00000000
