10
Lattice="16.28999089631971 0.0 0.0 0.0 16.28999089631971 0.0 0.0 0.0 34.385447050020396" Properties=species:S:1:pos:R:3:initial_magmoms:R:1 pbc="T T T"
Si      -1.35399222       1.32167498      -1.40027934       0.00000000
Si      -1.76500521      -1.02578963       1.23718908       0.00000000
Si       1.36155078      -1.39773920      -1.39151105       0.00000000
Si       0.80676225       1.89923367       1.26762021       0.00000000
Si      -2.68395669       2.62119018       0.10521953       0.00000000
Si       1.63303992       1.02888829       3.26586282       0.00000000
Si       2.66396886       2.71080147       0.04153764       0.00000000
Si       0.00179190       2.67713004      -2.76008699       0.00000000
Si      -2.70961344      -0.03578117      -2.75881473       0.00000000
Si      -3.54498093       0.71536118       1.39223314       0.00000000
