10
Lattice="16.28999089631971 0.0 0.0 0.0 16.28999089631971 0.0 0.0 0.0 34.385447050020396" Properties=species:S:1:pos:R:3:initial_magmoms:R:1 pbc="T T T"
Si      -0.87039099      -0.44173593       2.12684424       0.00000000
Si      -1.00292643       1.96797861      -0.85217501       0.00000000
Si      -0.68369130      -2.12721336      -0.82494172       0.00000000
Si       2.25824427       0.76729158      -0.26346144       0.00000000
Si       0.64837458      -2.21425735       2.66095369       0.00000000
Si      -0.18318105       1.84945257      -3.03510195       0.00000000
Si       2.08649718       1.30403079      -2.58197028       0.00000000
Si       0.46915200      -3.56394968       0.60796943       0.00000000
Si      -0.58920930       1.67080014       3.22150556       0.00000000
Si       2.07088321       2.99814192       0.57389343       0.00000000
