10
Lattice="16.28999089631971 0.0 0.0 0.0 16.28999089631971 0.0 0.0 0.0 34.385447050020396" Properties=species:S:1:pos:R:3:initial_magmoms:R:1 pbc="T T T"
Si      -1.67915691       0.99121392       1.35199871       0.00000000
Si       1.04618363      -1.72915092       1.35117346       0.00000000
Si      -1.16660835      -1.43524674      -1.67515818       0.00000000
Si       2.01210726       1.72869480      -0.11675585       0.00000000
Si      -0.32327505       2.33996076       2.72929137       0.00000000
Si       2.40395995      -0.39185595       2.73149204       0.00000000
Si      -3.06284580       2.35014201      -0.18437487       0.00000000
Si       2.56827718      -3.00182346      -0.03119793       0.00000000
Si      -2.74626594      -2.84980518      -0.14927762       0.00000000
Si       1.03803138       3.66033042       1.32334186       0.00000000
