10
Lattice="16.28999089631971 0.0 0.0 0.0 16.28999089631971 0.0 0.0 0.0 34.385447050020396" Properties=species:S:1:pos:R:3:initial_magmoms:R:1 pbc="T T T"
Si       1.35588186       1.34874684       1.37729266       0.00000000
Si      -1.35610992      -1.37499003       1.37106889       0.00000000
Si       1.67915691      -0.99121392      -1.35199871       0.00000000
Si      -1.38368889       1.35892809      -1.53637358       0.00000000
Si      -2.67729408       2.66491368       0.03439922       0.00000000
Si       2.71718829       2.66911650      -0.02865685       0.00000000
Si      -2.69881317      -2.73124656      -0.01219996       0.00000000
Si       0.00592956       2.69790093       2.73514034       0.00000000
Si      -2.71002069      -0.01420488       2.73441824       0.00000000
Si       2.72534054      -2.72036484      -0.00082525       0.00000000
