10
Lattice="16.28999089631971 0.0 0.0 0.0 16.28999089631971 0.0 0.0 0.0 34.385447050020396" Properties=species:S:1:pos:R:3:initial_magmoms:R:1 pbc="T T T"
Si      -1.35488817       1.35394335      -1.35997958       0.00000000
Si       1.36089918       1.35009891       1.36740684       0.00000000
Si       1.36062225      -1.36273995      -1.35946379       0.00000000
Si      -1.34965908      -1.36200690       1.37583128       0.00000000
Si       2.69397504      -0.10803528       2.67305738       0.00000000
Si       0.13131369      -2.68123626       2.73343826       0.00000000
Si      -2.71026504       2.71205694       0.00010316       0.00000000
Si       0.00250866       2.71145732      -2.71744901       0.00000000
Si      -2.71238274      -0.00329058      -2.71734586       0.00000000
Si      -2.71119357      -2.72020194       0.00264768       0.00000000
