10
Lattice="16.28999089631971 0.0 0.0 0.0 16.28999089631971 0.0 0.0 0.0 34.385447050020396" Properties=species:S:1:pos:R:3:initial_magmoms:R:1 pbc="T T T"
Si      -1.36089918      -1.35009891      -1.36740684       0.00000000
Si       1.35855342       1.36282780      -1.37122362       0.00000000
Si       1.33307586      -1.45813419       1.30565054       0.00000000
Si      -1.36155078       1.39773920       1.39151105       0.00000000
Si       2.69792441      -0.12826746       2.58568391       0.00000000
Si       2.68371953       2.72724641      -0.01062511       0.00000000
Si      -2.71055826      -2.71210581       0.00842444       0.00000000
Si      -2.71554300       2.71941417      -0.00876829       0.00000000
Si      -0.00027693      -2.71283886      -2.72687063       0.00000000
Si       2.71788454      -2.72173320      -0.02857432       0.00000000
