10
Lattice="16.28999089631971 0.0 0.0 0.0 16.28999089631971 0.0 0.0 0.0 34.385447050020396" Properties=species:S:1:pos:R:3:initial_magmoms:R:1 pbc="T T T"
Si       1.36484855       1.32986673       1.28003337       0.00000000
Si       1.38480868      -1.26359901      -1.33422486       0.00000000
Si      -0.95614155      -1.51492113       1.47530843       0.00000000
Si      -1.33307586       1.45813419      -1.30565054       0.00000000
Si      -1.15194735      -0.24167844       3.41409856       0.00000000
Si      -2.56266135      -2.57320098       0.06038088       0.00000000
Si       0.07041859       1.81504809       3.21645090       0.00000000
Si       0.02630454      -2.61524547      -2.67838712       0.00000000
Si       2.65504913      -2.71111212      -0.02338212       0.00000000
Si      -2.69397504       0.10803528      -2.67305738       0.00000000
