10
Lattice="16.28999089631971 0.0 0.0 0.0 16.28999089631971 0.0 0.0 0.0 34.385447050020396" Properties=species:S:1:pos:R:3:initial_magmoms:R:1 pbc="T T T"
Si       0.57603069      -0.57256092       2.16315530       0.00000000
Si      -1.25968941       1.98355904      -0.00099718       0.00000000
Si      -1.47898539      -1.38583917      -1.18980590       0.00000000
Si       1.98899271      -0.67456890      -1.05745624       0.00000000
Si       1.19465973       0.40697130      -2.98606828       0.00000000
Si       1.66508235      -2.91455793      -0.17031121       0.00000000
Si      -3.39400521      -0.64550754       0.12382206       0.00000000
Si       2.12866317       1.14263666       2.55542470       0.00000000
Si      -0.32154831      -3.49194069      -1.30393127       0.00000000
Si       1.55786157      -2.67807600       2.16222689       0.00000000
