10
Lattice="16.28999089631971 0.0 0.0 0.0 16.28999089631971 0.0 0.0 0.0 34.385447050020396" Properties=species:S:1:pos:R:3:initial_magmoms:R:1 pbc="T T T"
Si      -0.44289252       0.12667104       2.36530745       0.00000000
Si       1.94773014       1.47172005      -0.46915530       0.00000000
Si      -1.89255591      -0.06887412      -1.66556322       0.00000000
Si       2.20048578      -1.75516605       0.28601831       0.00000000
Si       2.54845647      -0.61669053      -1.77748791       0.00000000
Si       0.97368588      -3.30017481      -1.03599971       0.00000000
Si      -0.79746066      -0.91662201      -3.54717031       0.00000000
Si       3.08883717       1.63633050       1.64909258       0.00000000
Si      -2.90253591      -2.22767379      -1.27184963       0.00000000
Si      -2.14648443       1.92761199       2.62088710       0.00000000
