10
Lattice="16.28999089631971 0.0 0.0 0.0 16.28999089631971 0.0 0.0 0.0 34.385447050020396" Properties=species:S:1:pos:R:3:initial_magmoms:R:1 pbc="T T T"
Si       1.35720801      -1.35723393      -1.35530315       0.00000000
Si      -1.35659589      -1.35803214       1.35743505       0.00000000
Si      -1.35780135       1.35777150      -1.35650664       0.00000000
Si       1.35696366       1.35881406       1.35712558       0.00000000
Si       0.00183969       2.71086777       2.71232558       0.00000000
Si       0.00182721      -2.71375110      -2.71136279       0.00000000
Si       2.71340264       0.00029322      -2.71260066       0.00000000
Si      -0.00059081      -2.71494027       2.71125963       0.00000000
Si       2.71203428       0.00265527       2.71576413       0.00000000
Si      -2.71278726       0.00087966      -2.71517957       0.00000000
