10
Lattice="16.28999089631971 0.0 0.0 0.0 16.28999089631971 0.0 0.0 0.0 34.385447050020396" Properties=species:S:1:pos:R:3:initial_magmoms:R:1 pbc="T T T"
Si      -1.35797024      -1.35635427       1.35640349       0.00000000
Si       1.35711990       1.35734796       1.35767575       0.00000000
Si       1.35747828      -1.35874890      -1.35719435       0.00000000
Si      -1.35870003       1.35786924      -1.35784768       0.00000000
Si      -2.71309421      -0.00430056       2.71160348       0.00000000
Si       2.71586880      -0.00022806       2.71077823       0.00000000
Si      -0.00289962      -2.71251306       2.71504203       0.00000000
Si      -0.00153126      -2.71487511      -2.71332276       0.00000000
Si       2.71482624      -2.71461447       0.00030947       0.00000000
Si       2.71495656       2.71487511       0.00006877       0.00000000
