10
Lattice="16.28999089631971 0.0 0.0 0.0 16.28999089631971 0.0 0.0 0.0 34.385447050020396" Properties=species:S:1:pos:R:3:initial_magmoms:R:1 pbc="T T T"
Si      -1.35534918      -1.35746688       1.35894801       0.00000000
Si       1.35905841       1.35765747       1.35898240       0.00000000
Si      -1.36432171       1.36604682      -1.34973271       0.00000000
Si       1.36883241      -1.36798044      -1.35341195       0.00000000
Si      -2.69330096      -0.00159642      -2.72521325       0.00000000
Si      -0.00009774       2.71419093      -2.70491895       0.00000000
Si      -2.71123334       2.71585251       0.00429818       0.00000000
Si      -2.71469153      -2.71355878       0.00082525       0.00000000
Si      -2.71317374      -0.00032580       2.71600482       0.00000000
Si       2.71604799      -2.71348733       0.00391994       0.00000000
