10
Lattice="16.28999089631971 0.0 0.0 0.0 16.28999089631971 0.0 0.0 0.0 34.385447050020396" Properties=species:S:1:pos:R:3:initial_magmoms:R:1 pbc="T T T"
Si      -0.26909614       2.03879124      -1.07341110       0.00000000
Si       1.21073144       0.52295787       1.91207262       0.00000000
Si       1.33684862      -1.44024777      -1.29622892       0.00000000
Si      -2.07281846      -0.80140284       0.79110642       0.00000000
Si      -1.16338034       3.31203393       0.68839703       0.00000000
Si      -2.77771934      -2.22262389      -1.01375232       0.00000000
Si       1.70729951      -1.51847235       2.95725326       0.00000000
Si       2.44398218       2.54886372       1.45247648       0.00000000
Si       1.94303210      -3.39395634      -0.06361311       0.00000000
Si      -1.86086927      -2.19524040       2.73983395       0.00000000
