10
Lattice="16.28999089631971 0.0 0.0 0.0 16.28999089631971 0.0 0.0 0.0 34.385447050020396" Properties=species:S:1:pos:R:3:initial_magmoms:R:1 pbc="T T T"
Si      -0.94623723       2.14216758       0.36111617       0.00000000
Si       1.75500315       0.19233603      -1.62584800       0.00000000
Si      -1.76686064      -1.15005771      -1.22051213       0.00000000
Si       0.28079073      -0.84206268       2.35990894       0.00000000
Si       0.51965100       0.02870298      -3.63488764       0.00000000
Si      -3.20381036       1.63457118       0.95168655       0.00000000
Si       0.46175634       3.12810354       2.09627557       0.00000000
Si      -0.71359974      -1.99720287      -3.17529150       0.00000000
Si      -3.05979047      -2.27501253       0.45237519       0.00000000
Si       2.61485451       2.62845666       1.01959785       0.00000000
