10
Lattice="16.28999089631971 0.0 0.0 0.0 16.28999089631971 0.0 0.0 0.0 34.385447050020396" Properties=species:S:1:pos:R:3:initial_magmoms:R:1 pbc="T T T"
Si       1.35405738      -1.33838640       1.63306895       0.00000000
Si      -1.32185205       1.36821865       1.64974590       0.00000000
Si      -1.68075333      -0.54068139      -1.98387777       0.00000000
Si       1.92907809       1.29419163      -1.49945532       0.00000000
Si       2.84030811      -2.67255369       0.28187830       0.00000000
Si      -2.06902548       3.28550471       0.48740367       0.00000000
Si       0.00594585      -2.69061930       3.02706263       0.00000000
Si      -2.71146724       0.02412549       3.02448372       0.00000000
Si       2.71762812       0.02350647       3.02809419       0.00000000
Si       0.01554066       2.72617615       3.03448989       0.00000000
