10
Lattice="16.28999089631971 0.0 0.0 0.0 16.28999089631971 0.0 0.0 0.0 34.385447050020396" Properties=species:S:1:pos:R:3:initial_magmoms:R:1 pbc="T T T"
Si      -1.35651604       1.35647233       1.36424337       0.00000000
Si       1.36057012      -1.36044306       1.36290234       0.00000000
Si       1.38961519       1.34409316      -1.37473782       0.00000000
Si      -1.35789597      -1.38885282      -1.39773138       0.00000000
Si      -2.71004742       2.70471408       0.00422941       0.00000000
Si      -2.71920240      -2.70922248       0.00821813       0.00000000
Si       2.72700790       2.70205066       0.01000617       0.00000000
Si       2.71741309      -2.71474479       0.00257891       0.00000000
Si       0.00282631       2.71256423       2.72236614       0.00000000
Si      -2.71324026      -0.00335574       2.72181597       0.00000000
