10
Lattice="16.28999089631971 0.0 0.0 0.0 16.28999089631971 0.0 0.0 0.0 34.51007289658418" Properties=species:S:1:pos:R:3:initial_magmoms:R:1 pbc="T T T"
Si       0.63871461       1.92971340       1.23252794       0.00000000
Si      -0.39571668      -1.56105441       1.78582825       0.00000000
Si       0.95583204      -0.13937724      -2.21199338       0.00000000
Si      -2.07115947       0.62957592      -1.07795724       0.00000000
Si       2.79759573      -0.58394763       1.17144508       0.00000000
Si      -0.89119332       1.05977853      -3.07612609       0.00000000
Si       0.40395942       1.21192713       3.47350980       0.00000000
Si       2.67799455      -2.69241120      -0.02308725       0.00000000
Si      -0.89669934       3.62971566       0.72257231       0.00000000
Si      -2.95496528       2.60159186      -0.05559576       0.00000000
