10
Lattice="16.28999089631971 0.0 0.0 0.0 16.28999089631971 0.0 0.0 0.0 34.51007289658418" Properties=species:S:1:pos:R:3:initial_magmoms:R:1 pbc="T T T"
Si      -2.22418284       0.55666188      -0.80798479       0.00000000
Si       1.22352561      -1.05163353      -1.94650724       0.00000000
Si       2.02320171       1.72134801      -0.25882569       0.00000000
Si       0.78164307      -0.27315072       2.72374354       0.00000000
Si      -0.90419763      -2.63226852       0.87310533       0.00000000
Si       2.82605436      -1.80675648      -0.37056937       0.00000000
Si      -3.52705283       1.04006763       1.13206906       0.00000000
Si       3.87475569       0.21714570      -0.24795501       0.00000000
Si      -1.78387555      -3.22556661      -1.23942996       0.00000000
Si      -3.20713352      -1.41152850      -1.71466844       0.00000000
