10
Lattice="16.28999089631971 0.0 0.0 0.0 16.28999089631971 0.0 0.0 0.0 34.51007289658418" Properties=species:S:1:pos:R:3:initial_magmoms:R:1 pbc="T T T"
Si       0.62182188      -1.22627862       1.92983886       0.00000000
Si       0.22533957       2.16388215       0.94637026       0.00000000
Si      -2.05390836      -0.51225534      -1.11398578       0.00000000
Si       1.94857722      -0.66839499      -1.27042002       0.00000000
Si       2.81171916      -0.32249313       2.05700855       0.00000000
Si      -1.37174832      -2.35730472      -2.33743756       0.00000000
Si       0.07631865      -3.43428223       1.19756922       0.00000000
Si       1.77205878       1.25773461      -2.99337089       0.00000000
Si       2.10795858       1.94466762       2.36183620       0.00000000
Si      -1.65327210       2.50730793       2.35148317       0.00000000
