10
Lattice="16.28999089631971 0.0 0.0 0.0 16.28999089631971 0.0 0.0 0.0 34.51007289658418" Properties=species:S:1:pos:R:3:initial_magmoms:R:1 pbc="T T T"
Si      -0.15776865      -1.44586619      -1.78406824       0.00000000
Si      -1.12155021      -0.99474559       1.77578581       0.00000000
Si      -1.23414669       1.92484269      -0.61600515       0.00000000
Si       2.28763728       0.03538188       0.62176833       0.00000000
Si      -1.19474118      -0.09695808      -3.31338297       0.00000000
Si       0.41386374      -2.69474786       2.28574145       0.00000000
Si      -1.11164589       0.72062073       3.43016512       0.00000000
Si      -3.36683023       1.59700644       0.40086923       0.00000000
Si       2.63860533      -2.00068079       1.77882270       0.00000000
Si       1.90340505      -1.85151163      -2.70369317       0.00000000
