10
Lattice="16.28999089631971 0.0 0.0 0.0 16.28999089631971 0.0 0.0 0.0 34.51007289658418" Properties=species:S:1:pos:R:3:initial_magmoms:R:1 pbc="T T T"
Si      -0.28212651       1.93389993       1.27269769       0.00000000
Si      -1.75933629      -1.29792204      -0.90350872       0.00000000
Si      -0.12243564       1.70411319      -1.87075759       0.00000000
Si       0.87529428      -1.70025246       1.66380056       0.00000000
Si      -0.97823079      -1.75488912       3.16743979       0.00000000
Si       2.90884014      -1.17468819      -2.09662614       0.00000000
Si      -0.92856258       3.62395485      -0.59284887       0.00000000
Si      -0.74051082      -2.99551923      -2.25906514       0.00000000
Si      -1.81589517       0.67004028      -3.35262095       0.00000000
Si       1.55745432      -3.54530184       0.44034878       0.00000000
