10
Lattice="16.28999089631971 0.0 0.0 0.0 16.28999089631971 0.0 0.0 0.0 34.51007289658418" Properties=species:S:1:pos:R:3:initial_magmoms:R:1 pbc="T T T"
Si      -1.05738390       1.91326050      -0.88266463       0.00000000
Si       1.86917976      -0.52602039      -1.38164605       0.00000000
Si       0.85258602       0.95118939       2.04406727       0.00000000
Si      -1.80395460      -1.67824467      -0.03937602       0.00000000
Si       2.71127502      -0.54709965       1.98298441       0.00000000
Si      -0.95623929       1.41814224      -3.15815658       0.00000000
Si      -3.33671165       1.74674412      -0.32491252       0.00000000
Si       3.87346878      -0.38841876      -0.12440888       0.00000000
Si      -3.79641382      -0.52966935      -0.70749140       0.00000000
Si       2.69522937       1.16027154      -2.74496724       0.00000000
