10
Lattice="16.28999089631971 0.0 0.0 0.0 16.28999089631971 0.0 0.0 0.0 34.51007289658418" Properties=species:S:1:pos:R:3:initial_magmoms:R:1 pbc="T T T"
Si       1.03697253      -1.34890811       1.52931474       0.00000000
Si       0.50777559      -1.05510819      -2.01632116       0.00000000
Si      -2.26816096      -0.26138934       0.55726897       0.00000000
Si      -0.14229315       2.49206049       0.21907007       0.00000000
Si      -2.39477824       1.96706637      -0.12327005       0.00000000
Si      -0.03940551       2.02180077       2.69737783       0.00000000
Si       1.19474118       0.09695808       3.31338297       0.00000000
Si      -1.44467050      -2.43326078      -2.13327586       0.00000000
Si       0.48086451       0.79415379      -3.44269229       0.00000000
Si       0.67896720       2.82664080      -2.08109660       0.00000000
