10
Lattice="16.28999089631971 0.0 0.0 0.0 16.28999089631971 0.0 0.0 0.0 34.51007289658418" Properties=species:S:1:pos:R:3:initial_magmoms:R:1 pbc="T T T"
Si       1.35687555      -1.35736425       1.35686780       0.00000000
Si       1.35387819       1.35990549      -1.35748899       0.00000000
Si      -1.35866745       1.35738054       1.35679878       0.00000000
Si      -1.35687555      -1.35858600      -1.35776507       0.00000000
Si       0.00431685       2.70990666      -2.71328698       0.00000000
Si      -0.00175932      -2.71259451      -2.71259678       0.00000000
Si       2.71393029       0.00004887       2.71473640       0.00000000
Si       2.71407690       2.71461447      -0.00010353       0.00000000
Si      -0.00180819      -2.71415835       2.71487444       0.00000000
Si       2.71422351      -2.71498914      -0.00044863       0.00000000
