10
Lattice="16.28999089631971 0.0 0.0 0.0 16.28999089631971 0.0 0.0 0.0 34.51007289658418" Properties=species:S:1:pos:R:3:initial_magmoms:R:1 pbc="T T T"
Si       2.02302252       0.32985525      -1.10014723       0.00000000
Si       0.65655216       0.64853815       2.14431909       0.00000000
Si      -0.73717137      -2.16691209      -0.50474461       0.00000000
Si      -1.93381848       1.34798351      -0.48169187       0.00000000
Si      -2.85612570      -1.77256377       0.57428244       0.00000000
Si       1.25235891      -0.35015355      -3.26624218       0.00000000
Si      -1.40462154       1.05418359       3.06394402       0.00000000
Si      -0.42746589      -2.05086213      -2.90533564       0.00000000
Si       2.56852575       2.53785887      -0.36787758       0.00000000
Si       1.51308036       2.83601474       1.73713451       0.00000000
