10
Lattice="16.28999089631971 0.0 0.0 0.0 16.28999089631971 0.0 0.0 0.0 34.51007289658418" Properties=species:S:1:pos:R:3:initial_magmoms:R:1 pbc="T T T"
Si      -1.90125477      -1.12454757      -0.87369200       0.00000000
Si       1.24574517      -1.59493761       1.30568934       0.00000000
Si      -0.91065987       1.42514694       1.74890245       0.00000000
Si       1.06243380       1.40100516      -1.76001470       0.00000000
Si       2.99714823      -0.09840789       1.60182044       0.00000000
Si      -3.21051465      -1.50785127       1.05876963       0.00000000
Si      -3.25871676       0.56920518      -1.91241127       0.00000000
Si      -3.03741711       0.47232855       2.28156572       0.00000000
Si      -1.86499323       3.38465542       0.73665243       0.00000000
Si      -2.52154539       2.73611727      -1.40766666       0.00000000
