10
Lattice="16.28999089631971 0.0 0.0 0.0 16.28999089631971 0.0 0.0 0.0 34.51007289658418" Properties=species:S:1:pos:R:3:initial_magmoms:R:1 pbc="T T T"
Si      -1.35376416       1.35658559       1.35724742       0.00000000
Si      -1.35633798      -1.35660716      -1.35707486       0.00000000
Si       1.35811359      -1.35564144       1.35866233       0.00000000
Si       1.35796698       1.35823088      -1.35693682       0.00000000
Si       0.00936675       2.70766190       2.70635045       0.00000000
Si      -2.71454931      -2.71346181       0.00127687       0.00000000
Si      -2.71435383       0.00093667      -2.71377012       0.00000000
Si       0.00055386      -2.71453695      -2.71370110       0.00000000
Si       2.71482624      -2.71357584       0.00062118       0.00000000
Si       2.71559187       0.00140257      -2.71418424       0.00000000
