10
Lattice="16.28999089631971 0.0 0.0 0.0 16.28999089631971 0.0 0.0 0.0 34.51007289658418" Properties=species:S:1:pos:R:3:initial_magmoms:R:1 pbc="T T T"
Si       0.31120416       0.62838023      -2.23980851       0.00000000
Si      -0.04118112      -2.36680409       0.47109727       0.00000000
Si       0.76970250       1.81052924       1.45856905       0.00000000
Si      -2.55062304       0.12161951       0.39155151       0.00000000
Si      -1.87321968      -1.63536680       1.76046333       0.00000000
Si      -1.19923722       2.49223316      -2.14542341       0.00000000
Si      -0.51261372      -1.22378366      -3.45922262       0.00000000
Si       0.59318406       3.73665884      -0.26438182       0.00000000
Si      -1.17887472       2.47892423       2.72898907       0.00000000
Si      -1.14165207      -3.07106966      -2.08996569       0.00000000
