10
Lattice="16.28999089631971 0.0 0.0 0.0 16.28999089631971 0.0 0.0 0.0 34.51007289658418" Properties=species:S:1:pos:R:3:initial_magmoms:R:1 pbc="T T T"
Si      -1.87452288      -0.85804317       1.17406785       0.00000000
Si       1.40198256      -1.33221901      -1.42316169       0.00000000
Si      -1.30222260       1.39145922      -1.46219261       0.00000000
Si       1.12539465       1.73149668       1.34665282       0.00000000
Si      -0.76507614       3.27723849       1.09466012       0.00000000
Si      -3.38496426       1.00580976       1.26845295       0.00000000
Si      -2.70997182       2.68798032      -0.17210183       0.00000000
Si      -2.69834076      -2.71020707      -0.04534626       0.00000000
Si       2.63243142      -2.82466061       0.11778294       0.00000000
Si      -2.66535351       0.04038291      -2.81129564       0.00000000
