10
Lattice="16.28999089631971 0.0 0.0 0.0 16.28999089631971 0.0 0.0 0.0 34.51007289658418" Properties=species:S:1:pos:R:3:initial_magmoms:R:1 pbc="T T T"
Si       0.08762391      -1.87822723       1.39614029       0.00000000
Si       1.82840589       0.54162621      -1.47147582       0.00000000
Si       0.82135809       1.12500369       2.01204190       0.00000000
Si      -1.94241960      -0.51523641      -1.42095305       0.00000000
Si       1.35130437      -1.19583261      -2.96348515       0.00000000
Si      -3.03204141       1.47859443      -1.07926862       0.00000000
Si      -0.88407459      -0.83696391      -3.48714128       0.00000000
Si       1.91607867      -0.76786173       3.11467511       0.00000000
Si       0.22965642      -3.79207484       0.06384367       0.00000000
Si      -1.45215576       3.26024802      -1.50909182       0.00000000
