10
Lattice="16.28999089631971 0.0 0.0 0.0 16.28999089631971 0.0 0.0 0.0 34.51007289658418" Properties=species:S:1:pos:R:3:initial_magmoms:R:1 pbc="T T T"
Si       1.27523007      -1.32644583      -1.64523413       0.00000000
Si       1.98780354       0.79060257       1.33181348       0.00000000
Si      -0.87617394      -2.18067714       0.91168762       0.00000000
Si      -1.40563152       1.35922131      -1.60986129       0.00000000
Si      -1.76059062       0.34415883       2.05134890       0.00000000
Si       2.59120143      -2.67687054      -0.32208269       0.00000000
Si      -2.86658388       2.61865008      -0.25596135       0.00000000
Si       2.82405069       2.69781948       0.03278459       0.00000000
Si       3.68875647      -1.00427850       0.91565628       0.00000000
Si      -2.82106962      -2.76993531      -0.35507434       0.00000000
