10
Lattice="16.28999089631971 0.0 0.0 0.0 16.28999089631971 0.0 0.0 0.0 34.51007289658418" Properties=species:S:1:pos:R:3:initial_magmoms:R:1 pbc="T T T"
Si       0.82746684       1.02700305      -2.05483442       0.00000000
Si       0.56397609       2.16484326       1.04434441       0.00000000
Si       0.17651844      -1.92612960       1.72295086       0.00000000
Si      -1.79242128      -1.24442568      -1.88104159       0.00000000
Si       2.71793763      -0.51873876      -1.80284173       0.00000000
Si      -1.11742884       0.43774488      -3.32159637       0.00000000
Si      -0.05694984       3.55183902      -0.91517313       0.00000000
Si      -0.28197990      -3.10827861      -1.97542670       0.00000000
Si      -1.77205878      -1.25773461       2.99337089       0.00000000
Si      -0.59318406      -3.73665884       0.26438182       0.00000000
