10
Lattice="16.28999089631971 0.0 0.0 0.0 16.28999089631971 0.0 0.0 0.0 34.51007289658418" Properties=species:S:1:pos:R:3:initial_magmoms:R:1 pbc="T T T"
Si       1.08962181      -1.99383084      -0.34168442       0.00000000
Si      -2.00428902      -0.13760163      -1.25723717       0.00000000
Si      -1.16219376      -0.15868089       2.10739329       0.00000000
Si       1.57988565       1.78165359      -0.42982320       0.00000000
Si      -1.17823941       1.54869030      -2.62055836       0.00000000
Si      -0.15993522       3.19054311      -1.20554105       0.00000000
Si       3.03204141      -1.47859443       1.07926862       0.00000000
Si      -0.48946563      -3.62642604       0.32663802       0.00000000
Si      -1.77021801      -2.52325584       2.17044323       0.00000000
Si      -3.87346878       0.38841876       0.12440888       0.00000000
