10
Lattice="16.28999089631971 0.0 0.0 0.0 16.28999089631971 0.0 0.0 0.0 34.51007289658418" Properties=species:S:1:pos:R:3:initial_magmoms:R:1 pbc="T T T"
Si      -1.61461593       0.22486716      -1.67474026       0.00000000
Si      -1.47528756      -1.12073571       1.46290493       0.00000000
Si       1.20107799       1.60653609       1.41759663       0.00000000
Si       2.72251512      -2.24485974      -0.17986660       0.00000000
Si      -0.32891139       0.94951152      -3.44334798       0.00000000
Si       2.02259898       1.27798308      -2.83745429       0.00000000
Si      -0.10513566      -2.46400911       2.81056545       0.00000000
Si      -2.43667449      -2.14312869      -1.94384996       0.00000000
Si       2.62018134       0.26011872       2.79415935       0.00000000
Si      -3.32579898      -1.93578957       0.21298149       0.00000000
