10
Lattice="16.28999089631971 0.0 0.0 0.0 16.28999089631971 0.0 0.0 0.0 34.51007289658418" Properties=species:S:1:pos:R:3:initial_magmoms:R:1 pbc="T T T"
Si      -1.35690813      -1.35793440      -1.35610858       0.00000000
Si       1.35793440       1.35798327      -1.35617760       0.00000000
Si      -1.35294966       1.35832536       1.36214785       0.00000000
Si       1.35438318      -1.35811359       1.36301060       0.00000000
Si      -0.01762578      -2.69793351       2.70648849       0.00000000
Si      -0.00011403      -2.71463076      -2.71394267       0.00000000
Si      -2.71484253       0.00024435      -2.71383914       0.00000000
Si       2.71516833       0.00022806      -2.71383914       0.00000000
Si       0.00048870       2.71538010      -2.71377012       0.00000000
Si       2.71586880      -2.71344159       0.00106981       0.00000000
