10
Lattice="16.28999089631971 0.0 0.0 0.0 16.28999089631971 0.0 0.0 0.0 34.51007289658418" Properties=species:S:1:pos:R:3:initial_magmoms:R:1 pbc="T T T"
Si      -1.25840250       1.87986600       0.44459352       0.00000000
Si       1.69274277       0.70488459      -1.40145484       0.00000000
Si      -1.51228215      -1.00895373      -1.46308987       0.00000000
Si       1.03879701      -1.41652953       1.60406359       0.00000000
Si       3.20083839      -1.09849986      -1.23787701       0.00000000
Si       2.34725868      -2.80336239       0.13769527       0.00000000
Si       0.65179548       1.26970776      -3.41004574       0.00000000
Si      -1.02017754      -3.31410276      -1.37678013       0.00000000
Si      -3.66060735      -0.71258976      -0.54139433       0.00000000
Si      -3.54100617       1.39587381       0.65313800       0.00000000
