10
Lattice="16.28999089631971 0.0 0.0 0.0 16.28999089631971 0.0 0.0 0.0 34.51007289658418" Properties=species:S:1:pos:R:3:initial_magmoms:R:1 pbc="T T T"
Si      -1.87152552      -0.93437811       1.02450111       0.00000000
Si       1.39939245      -1.29236715      -1.42740643       0.00000000
Si      -1.30116375       1.45272591      -1.44721523       0.00000000
Si       1.87134633       0.47529333       1.60948168       0.00000000
Si      -3.33477477       0.91603557       1.31145252       0.00000000
Si       2.62503576       2.64886803       0.10532480       0.00000000
Si      -1.21489191      -2.22275421       2.90053874       0.00000000
Si       0.04360833      -2.62873359      -2.81906041       0.00000000
Si      -2.70573642       2.76332157      -0.05780440       0.00000000
Si      -2.67540444       0.08465913      -2.81816315       0.00000000
