10
Lattice="16.28999089631971 0.0 0.0 0.0 16.28999089631971 0.0 0.0 0.0 34.51007289658418" Properties=species:S:1:pos:R:3:initial_magmoms:R:1 pbc="T T T"
Si      -1.83203856       0.73143729       1.28936606       0.00000000
Si       0.04118112       2.36680409      -0.47109727       0.00000000
Si       0.90479547      -1.31044905       2.00955718       0.00000000
Si      -1.10047095      -0.70426557      -2.56106296       0.00000000
Si      -0.23431536      -3.28411287       1.08410004       0.00000000
Si      -2.50944192       2.48842360      -0.07954576       0.00000000
Si       0.36277830      -2.55467925      -2.84801438       0.00000000
Si      -1.06137495       1.41144609       3.45546102       0.00000000
Si      -3.51186336      -0.96927129       1.65027261       0.00000000
Si       0.35238528       2.99518433      -2.71090578       0.00000000
