10
Lattice="16.28999089631971 0.0 0.0 0.0 16.28999089631971 0.0 0.0 0.0 34.51007289658418" Properties=species:S:1:pos:R:3:initial_magmoms:R:1 pbc="T T T"
Si      -2.26861056       0.71296443       0.13317445       0.00000000
Si       0.19401390      -0.88459587      -2.21741146       0.00000000
Si       0.23659596      -1.60660125       1.76142962       0.00000000
Si       1.93531716       1.39960422       0.45660303       0.00000000
Si       1.32071175       1.62913032       2.75293907       0.00000000
Si      -3.40772139      -1.26069939      -0.79228270       0.00000000
Si       0.44533602      -0.29631510       3.73433708       0.00000000
Si      -2.67382431       1.76989221       2.32687748       0.00000000
Si       0.85529016      -3.25900998      -2.08430604       0.00000000
Si      -2.15399412      -1.81964187      -2.84835948       0.00000000
