10
Lattice="16.28999089631971 0.0 0.0 0.0 16.28999089631971 0.0 0.0 0.0 34.51007289658418" Properties=species:S:1:pos:R:3:initial_magmoms:R:1 pbc="T T T"
Si      -1.75140306      -1.49652972      -0.29613110       0.00000000
Si       1.04094729      -0.56482317       2.00859090       0.00000000
Si       1.18444590      -0.56679426      -1.95437554       0.00000000
Si       0.13554909       2.36507994      -0.17186026       0.00000000
Si      -2.99714823       0.09840789      -1.60182044       0.00000000
Si       2.44770282       2.53949697       0.52003258       0.00000000
Si       0.09308106       2.65119750      -2.51571670       0.00000000
Si      -0.65179548      -1.26970776       3.41004574       0.00000000
Si      -2.16407763      -2.27866149       1.94695587       0.00000000
Si       3.15468882      -1.61082036      -1.31404078       0.00000000
