10
Lattice="16.28999089631971 0.0 0.0 0.0 16.28999089631971 0.0 0.0 0.0 34.51007289658418" Properties=species:S:1:pos:R:3:initial_magmoms:R:1 pbc="T T T"
Si      -0.49467843       1.04444964      -2.00762461       0.00000000
Si       0.81552627       1.90500147       1.21190268       0.00000000
Si      -1.98822708      -0.82230291       1.23338866       0.00000000
Si       1.72573002      -1.80199980       0.13704376       0.00000000
Si       2.03641290       0.57435282       2.73104384       0.00000000
Si      -0.72001800      -2.15963046       2.72695785       0.00000000
Si       3.38879241      -0.81827928       1.42973383       0.00000000
Si       0.59341212      -3.51525168       1.33849950       0.00000000
Si      -2.55857256       0.75828321      -2.99896152       0.00000000
Si       0.65536299      -0.79689051       4.08400855       0.00000000
