10
Lattice="16.28999089631971 0.0 0.0 0.0 16.28999089631971 0.0 0.0 0.0 34.51007289658418" Properties=species:S:1:pos:R:3:initial_magmoms:R:1 pbc="T T T"
Si      -1.56300921      -0.82444993       1.46288643       0.00000000
Si      -1.09472058       1.89286542      -1.10263320       0.00000000
Si       1.15841448       1.84899645       1.26197903       0.00000000
Si       1.76450022      -1.74431528      -0.44473281       0.00000000
Si      -1.82845476      -1.11036550      -1.71853482       0.00000000
Si      -0.19679949      -2.19170189       2.73446599       0.00000000
Si       1.10001483       2.90263365      -1.89287980       0.00000000
Si      -3.40298100      -1.50779425       0.06105819       0.00000000
Si      -1.91607867       0.76786173      -3.11467511       0.00000000
Si       2.50976772       0.54737658       2.71999936       0.00000000
