10
Lattice="16.28999089631971 0.0 0.0 0.0 16.28999089631971 0.0 0.0 0.0 34.51007289658418" Properties=species:S:1:pos:R:3:initial_magmoms:R:1 pbc="T T T"
Si       1.76777355      -0.81669915       1.27956520       0.00000000
Si      -0.74380140       0.41657277       2.25130037       0.00000000
Si       1.42368084       1.38866223      -1.40987531       0.00000000
Si      -1.39352805      -1.48250633      -1.34465123       0.00000000
Si      -1.33261974       2.72238969       2.06397959       0.00000000
Si       2.76843404      -2.53343939      -0.14145687       0.00000000
Si      -2.62397691       0.00993527      -2.88559587       0.00000000
Si       0.08071695      -2.67363113      -2.90219522       0.00000000
Si       0.09490554       2.73164241      -2.89912382       0.00000000
Si       2.35742105       3.24813315      -0.08051205       0.00000000
