10
Lattice="16.28999089631971 0.0 0.0 0.0 16.28999089631971 0.0 0.0 0.0 34.51007289658418" Properties=species:S:1:pos:R:3:initial_magmoms:R:1 pbc="T T T"
Si       1.23844629      -1.89866370       0.56738043       0.00000000
Si       1.19186015       1.92779933       0.84428941       0.00000000
Si      -2.33396604      -0.19581557       0.72409075       0.00000000
Si       0.32289942      -0.26560519      -2.43396229       0.00000000
Si       2.07519029       0.98460833      -1.40683842       0.00000000
Si      -2.18867553       0.96766672      -1.46222712       0.00000000
Si       1.62158709      -0.90855750       2.66597364       0.00000000
Si      -0.41246280      -3.63276678       0.44580137       0.00000000
Si      -2.34740529       1.00081687       2.80235753       0.00000000
Si      -2.58901857      -2.58378852       1.04199772       0.00000000
