10
Lattice="16.28999089631971 0.0 0.0 0.0 16.28999089631971 0.0 0.0 0.0 34.51007289658418" Properties=species:S:1:pos:R:3:initial_magmoms:R:1 pbc="T T T"
Si      -1.42216587       0.78856632       1.75808214       0.00000000
Si      -0.78266934      -1.27439928      -1.91769131       0.00000000
Si       0.84944205       1.78136037      -1.42523230       0.00000000
Si       1.41371136      -1.43698977       1.38675354       0.00000000
Si      -1.68199137      -1.16256843       3.04893213       0.00000000
Si       2.79104715       2.47831173      -0.35441865       0.00000000
Si       1.28585115      -1.47830121      -3.19860240       0.00000000
Si      -2.39045976       0.08413785      -2.97704761       0.00000000
Si       0.81751365      -3.65253470       0.79317996       0.00000000
Si       0.55338759      -1.52143713       3.57258827       0.00000000
