10
Lattice="16.28999089631971 0.0 0.0 0.0 16.28999089631971 0.0 0.0 0.0 34.51007289658418" Properties=species:S:1:pos:R:3:initial_magmoms:R:1 pbc="T T T"
Si      -2.23537896       0.35886870      -0.52365614       0.00000000
Si       0.47710152       1.73745882       1.49200933       0.00000000
Si       0.86032377       0.08444736      -2.18583473       0.00000000
Si       0.38910294      -2.05520246       1.11339910       0.00000000
Si      -1.35130437       1.19583261       2.96348515       0.00000000
Si       0.26412606      -2.13109757      -2.77940831       0.00000000
Si      -1.97555346       2.31000345      -1.81450614       0.00000000
Si       0.38351547      -3.50252009      -0.78313752       0.00000000
Si       2.78376552      -1.87518167       1.44655953       0.00000000
Si      -3.29372397       0.68059620       1.54253210       0.00000000
