10
Lattice="16.28999089631971 0.0 0.0 0.0 16.28999089631971 0.0 0.0 0.0 34.51007289658418" Properties=species:S:1:pos:R:3:initial_magmoms:R:1 pbc="T T T"
Si       2.00510352      -0.01570356       1.16078146       0.00000000
Si      -0.47710152      -1.73745882      -1.49200933       0.00000000
Si      -1.82840589      -0.54162621       1.47147582       0.00000000
Si       0.25373304       2.05804602      -1.30341167       0.00000000
Si       1.18768761       1.59314571       2.69327112       0.00000000
Si      -2.71248048      -1.37859012      -2.01566546       0.00000000
Si      -1.00704780       0.58337748       3.48351773       0.00000000
Si      -1.91575287       2.41926048      -2.01200739       0.00000000
Si      -0.08799858      -3.79266128      -0.37861022       0.00000000
Si       3.75966099       0.79571763      -0.19087532       0.00000000
