10
Lattice="16.28999089631971 0.0 0.0 0.0 16.28999089631971 0.0 0.0 0.0 34.51007289658418" Properties=species:S:1:pos:R:3:initial_magmoms:R:1 pbc="T T T"
Si      -0.86032377      -0.08444736       2.18583473       0.00000000
Si       2.34508675       0.13299156       0.21675789       0.00000000
Si      -0.59619771      -2.21554493      -0.59357359       0.00000000
Si      -1.41371136       1.43698977      -1.38675354       0.00000000
Si      -3.09570273       0.27442134       1.66217859       0.00000000
Si      -2.83587723       2.22555609       0.37132859       0.00000000
Si       3.01764172       0.22118562      -2.03119501       0.00000000
Si       0.70442847      -2.84099948      -2.50398327       0.00000000
Si      -0.47680830      -3.58696745       1.40269721       0.00000000
Si      -0.47122083      -2.13964982       3.29923383       0.00000000
