10
Lattice="16.28999089631971 0.0 0.0 0.0 16.28999089631971 0.0 0.0 0.0 34.51007289658418" Properties=species:S:1:pos:R:3:initial_magmoms:R:1 pbc="T T T"
Si      -0.82135809      -1.12500369      -2.01204190       0.00000000
Si       1.09472058      -1.89286542       1.10263320       0.00000000
Si      -1.71509265       1.59146784       0.84114899       0.00000000
Si       2.19473541       1.00976823      -0.79024660       0.00000000
Si      -0.73373418      -3.00323092      -0.61590162       0.00000000
Si       2.25313506      -0.04386897       2.36461223       0.00000000
Si       1.04181066       3.14716284      -1.41063453       0.00000000
Si      -1.40703246       3.00270312      -1.45066623       0.00000000
Si       1.00704780      -0.58337748      -3.48351773       0.00000000
Si      -0.40669614       2.91659418       2.31916244       0.00000000
