10
Lattice="16.28999089631971 0.0 0.0 0.0 16.28999089631971 0.0 0.0 0.0 34.51007289658418" Properties=species:S:1:pos:R:3:initial_magmoms:R:1 pbc="T T T"
Si      -1.35540945       1.35723393      -1.35607407       0.00000000
Si      -1.35633798      -1.35733167       1.35735095       0.00000000
Si       1.35894438       1.35752715       1.35745448       0.00000000
Si       1.35873261      -1.35977517      -1.36190628       0.00000000
Si       0.01809819       2.69281845      -2.72437162       0.00000000
Si      -2.71103067       2.71485882      -0.00051765       0.00000000
Si      -2.71218726      -2.71552671      -0.00037961       0.00000000
Si      -2.71313208      -0.00063531       2.71518503       0.00000000
Si       2.71596109       2.71383255       0.00017255       0.00000000
Si       0.00161271      -2.71490769       2.71501248       0.00000000
