10
Lattice="16.28999089631971 0.0 0.0 0.0 16.28999089631971 0.0 0.0 0.0 34.51007289658418" Properties=species:S:1:pos:R:3:initial_magmoms:R:1 pbc="T T T"
Si      -1.35578412      -1.33636644      -1.39165398       0.00000000
Si      -1.39939245       1.29236715       1.42740643       0.00000000
Si       1.35539316       1.37968155      -1.39175751       0.00000000
Si       1.52836038      -1.36836000       1.63070539       0.00000000
Si       0.47195388       1.76766048       3.03688811       0.00000000
Si       2.72122821      -2.67232563      -0.02032644       0.00000000
Si      -2.70132183      -2.70695817      -0.01194049       0.00000000
Si      -2.70055620       2.74509306      -0.01980879       0.00000000
Si      -0.00283446      -2.69469180      -2.75380183       0.00000000
Si       2.69988831       2.75011038      -0.02481276       0.00000000
