10
Lattice="16.28999089631971 0.0 0.0 0.0 16.28999089631971 0.0 0.0 0.0 34.51007289658418" Properties=species:S:1:pos:R:3:initial_magmoms:R:1 pbc="T T T"
Si       1.35778779       1.35633101       1.35603956       0.00000000
Si      -1.35808590      -1.35706238       1.35766154       0.00000000
Si       1.35798327      -1.35782801      -1.35721291       0.00000000
Si      -1.35790508       1.35835749      -1.35721291       0.00000000
Si       2.71274112       0.00118153       2.71421875       0.00000000
Si      -0.00026064       2.71472805      -2.71314894       0.00000000
Si      -2.71455650      -0.00043118      -2.71449483       0.00000000
Si      -2.71498999       2.71485837       0.00017255       0.00000000
Si       2.71463076      -2.71527371      -0.00037961       0.00000000
Si       2.71485882       2.71510272      -0.00041412       0.00000000
