10
Lattice="16.28999089631971 0.0 0.0 0.0 16.28999089631971 0.0 0.0 0.0 34.51007289658418" Properties=species:S:1:pos:R:3:initial_magmoms:R:1 pbc="T T T"
Si      -1.52614494      -1.73289762      -0.50771248       0.00000000
Si       0.00558747       1.44731763       1.89653663       0.00000000
Si       1.51462791      -1.84507056       0.18459448       0.00000000
Si      -0.11938941       1.37142252      -1.99627079       0.00000000
Si      -0.01804932      -3.53628207      -0.34413464       0.00000000
Si      -0.38351547       3.50252009       0.78313752       0.00000000
Si       2.40025005       1.62733842       2.22969706       0.00000000
Si      -2.56709223      -1.16807445      -2.51630337       0.00000000
Si      -2.43154314       1.19700549      -2.68816363       0.00000000
Si       3.25153191      -1.59246153      -1.30344618       0.00000000
