10
Lattice="16.28999089631971 0.0 0.0 0.0 16.28999089631971 0.0 0.0 0.0 34.51007289658418" Properties=species:S:1:pos:R:3:initial_magmoms:R:1 pbc="T T T"
Si      -0.86679090       1.70272854      -1.37415736       0.00000000
Si       2.05605864       1.04171292       0.60023403       0.00000000
Si      -0.19810269      -2.03248701      -1.36159569       0.00000000
Si      -0.82126035      -0.33458031       2.30016666       0.00000000
Si      -1.18666134       2.12112090       2.51492297       0.00000000
Si      -0.67896720      -2.82664080       2.08109660       0.00000000
Si      -3.52669866      -0.81938700      -0.39030914       0.00000000
Si       0.49800159       1.65630204      -3.25633779       0.00000000
Si       2.68540650      -0.03841182       2.60074957       0.00000000
Si      -3.07374544      -0.85957443       1.95782655       0.00000000
