10
Lattice="16.28999089631971 0.0 0.0 0.0 16.28999089631971 0.0 0.0 0.0 34.51007289658418" Properties=species:S:1:pos:R:3:initial_magmoms:R:1 pbc="T T T"
Si       0.10114461      -0.49511826      -2.27549195       0.00000000
Si      -2.27932775      -0.16651638       0.55775211       0.00000000
Si       1.05738390      -1.91326050       0.88266463       0.00000000
Si       0.38595897       2.23334271       0.68323081       0.00000000
Si      -1.29415905       1.05412590      -3.18645485       0.00000000
Si       1.90996992      -0.96207111       2.92673190       0.00000000
Si      -2.73902992      -2.44292985       0.17517323       0.00000000
Si      -0.74657070      -3.59150517       0.84328861       0.00000000
Si      -0.88045821       2.24971416       2.96969696       0.00000000
Si       2.92656366      -2.43928089      -0.49898142       0.00000000
