10
Lattice="16.28999089631971 0.0 0.0 0.0 16.28999089631971 0.0 0.0 0.0 34.51007289658418" Properties=species:S:1:pos:R:3:initial_magmoms:R:1 pbc="T T T"
Si       0.97021611       1.89216495       0.92738971       0.00000000
Si       1.23414669      -1.92484269       0.61600515       0.00000000
Si      -2.13268354      -0.32783625       1.01687438       0.00000000
Si      -0.10288764       0.47025972      -2.47830776       0.00000000
Si       0.03940551      -2.02180077      -2.69737783       0.00000000
Si      -0.42508755       3.44140911       0.01642680       0.00000000
Si       2.95024932       2.11113513      -0.24329615       0.00000000
Si      -2.35537273      -0.05473440      -2.82064787       0.00000000
Si       1.07637804      -3.37070888      -1.16806309       0.00000000
Si      -0.46828863       2.92596093      -2.26355146       0.00000000
