10
Lattice="16.28999089631971 0.0 0.0 0.0 16.28999089631971 0.0 0.0 0.0 34.51007289658418" Properties=species:S:1:pos:R:3:initial_magmoms:R:1 pbc="T T T"
Si      -1.35701671      -1.35630540       1.35728193       0.00000000
Si       1.35814578      -1.35423657      -1.35973214       0.00000000
Si       1.35828913       1.35819504       1.35738546       0.00000000
Si      -1.35786379       1.35791811      -1.36100902       0.00000000
Si      -2.69786290      -0.02101410      -2.72454417       0.00000000
Si       2.71029397      -0.01402569      -2.71511601       0.00000000
Si       0.00057124      -2.71363707       2.71497797       0.00000000
Si       2.71591402      -2.71326240       0.00048314       0.00000000
Si      -2.71425064       0.00144981       2.71494346       0.00000000
Si      -2.71596109      -2.71383255      -0.00017255       0.00000000
