10
Lattice="16.28999089631971 0.0 0.0 0.0 16.28999089631971 0.0 0.0 0.0 34.51007289658418" Properties=species:S:1:pos:R:3:initial_magmoms:R:1 pbc="T T T"
Si      -1.35011031      -1.35136953       1.35769605       0.00000000
Si       1.35873261      -1.35576783      -1.36042234       0.00000000
Si      -1.35632006       1.35936792      -1.36018077       0.00000000
Si       1.35783666       1.35972630       1.38057624       0.00000000
Si      -2.62467950       0.07959294       2.72664238       0.00000000
Si       2.71036278      -2.71368594      -0.00075922       0.00000000
Si      -2.71474936      -2.71552671       0.00200159       0.00000000
Si       2.71471221       2.71648782      -0.00265728       0.00000000
Si       0.00039096      -2.71407690      -2.71739368       0.00000000
Si      -2.71477263       0.00052128      -2.71708309       0.00000000
