10
Lattice="16.28999089631971 0.0 0.0 0.0 16.28999089631971 0.0 0.0 0.0 34.51007289658418" Properties=species:S:1:pos:R:3:initial_magmoms:R:1 pbc="T T T"
Si       2.25308619      -0.57603069       0.01642680       0.00000000
Si      -0.23754078       0.09089820      -2.31593778       0.00000000
Si      -0.89492373      -1.81499922       1.19135740       0.00000000
Si      -0.71451198       2.05390836       0.93304936       0.00000000
Si      -3.15339051      -1.42719948       0.75756554       0.00000000
Si      -0.57505329      -2.23339158      -2.69772293       0.00000000
Si       3.10651929       1.16090685      -1.36204432       0.00000000
Si       1.36539522       2.88016974       1.68933803       0.00000000
Si       2.84188824      -0.48514878       2.28729440       0.00000000
Si       2.34779625      -2.89440720      -0.72333153       0.00000000
