10
Lattice="16.28999089631971 0.0 0.0 0.0 16.28999089631971 0.0 0.0 0.0 34.51007289658418" Properties=species:S:1:pos:R:3:initial_magmoms:R:1 pbc="T T T"
Si       1.63139463      -0.92040129       1.36159569       0.00000000
Si       1.29202506       0.26609715      -1.90561278       0.00000000
Si      -0.89177162       2.07741483       0.60658389       0.00000000
Si      -1.65498974      -1.65511287      -0.39341505       0.00000000
Si       1.15481439      -3.08736225       0.63267352       0.00000000
Si      -1.84499630       2.40933987      -1.50460551       0.00000000
Si      -0.19870868       1.70538381      -3.02115151       0.00000000
Si      -1.06136355      -3.09593079       1.36684122       0.00000000
Si       3.37193226       1.09235853      -1.14932411       0.00000000
Si      -2.62867562       1.82480580       2.09462456       0.00000000
