10
Lattice="16.28999089631971 0.0 0.0 0.0 16.28999089631971 0.0 0.0 0.0 34.51007289658418" Properties=species:S:1:pos:R:3:initial_magmoms:R:1 pbc="T T T"
Si       0.93833658       2.07736596       0.44611196       0.00000000
Si       1.57978791      -1.48164066       0.87717752       0.00000000
Si       0.37625013      -0.49389651      -2.26358597       0.00000000
Si      -2.06906458      -0.09656712       1.15318924       0.00000000
Si      -2.51275694      -2.14482285       0.03057594       0.00000000
Si       0.31337073      -1.46526921       3.16364368       0.00000000
Si       2.54086533       1.32224301       2.02204983       0.00000000
Si      -1.18938666       0.49673097       3.26572453       0.00000000
Si       3.59631072      -0.22972158       0.64461401       0.00000000
Si      -1.25514450       0.42650478      -3.62518165       0.00000000
