10
Lattice="16.28999089631971 0.0 0.0 0.0 16.28999089631971 0.0 0.0 0.0 34.51007289658418" Properties=species:S:1:pos:R:3:initial_magmoms:R:1 pbc="T T T"
Si      -1.42325797       1.81403811      -0.47523848       0.00000000
Si       0.87967792       0.59329809       2.11253529       0.00000000
Si       2.06906458       0.09656712      -1.15318924       0.00000000
Si      -0.44369236      -2.04825573      -1.12261330       0.00000000
Si       2.38243531      -1.36870209       2.01045444       0.00000000
Si       3.00740116       2.17393308      -0.70707728       0.00000000
Si      -0.44030730       3.78222849       0.43144517       0.00000000
Si      -3.55845343       1.32528924       0.61148432       0.00000000
Si      -2.66954071      -2.66479965      -0.93222112       0.00000000
Si       1.78387555       3.22556661       1.23942996       0.00000000
