10
Lattice="16.28999089631971 0.0 0.0 0.0 16.28999089631971 0.0 0.0 0.0 34.51007289658418" Properties=species:S:1:pos:R:3:initial_magmoms:R:1 pbc="T T T"
Si       1.35808590       1.35706238      -1.35766154       0.00000000
Si      -1.35727752      -1.35801585      -1.35797213       0.00000000
Si      -1.36216341       1.35987291       1.35645368       0.00000000
Si       1.35872121      -1.35904212       1.36087098       0.00000000
Si      -2.71380227       2.71370942      -0.00120785       0.00000000
Si       2.71587369       2.71339339      -0.00162197       0.00000000
Si      -2.71355792      -2.71606428      -0.00044863       0.00000000
Si      -2.71442129      -0.00035838      -2.71528856       0.00000000
Si       0.00018082       2.71541987      -2.71487444       0.00000000
Si       2.71606917      -0.00076563      -2.71487444       0.00000000
