10
Lattice="16.28999089631971 0.0 0.0 0.0 16.28999089631971 0.0 0.0 0.0 34.51007289658418" Properties=species:S:1:pos:R:3:initial_magmoms:R:1 pbc="T T T"
Si      -1.36514771      -1.34400645      -1.37322559       0.00000000
Si       1.35431639       1.36811565      -1.36946399       0.00000000
Si      -1.34329507       1.44036180       1.34610066       0.00000000
Si       1.31461766      -1.37156913       1.48200140       0.00000000
Si       2.56340906       0.07196922       2.80963916       0.00000000
Si      -2.70988290      -2.68130142       0.00169099       0.00000000
Si       2.71142000      -2.70156618       0.00973185       0.00000000
Si      -0.00273672      -2.70192456      -2.73102517       0.00000000
Si       2.71166435       0.01001835      -2.73112870       0.00000000
Si      -2.71796274       0.01109349      -2.73078359       0.00000000
