10
Lattice="10.86 0.0 0.0 0.0 10.86 0.0 0.0 0.0 10.86" Properties=species:S:1:pos:R:3:initial_magmoms:R:1 pbc="T T T"
Si      -1.49857140      -1.61072262      -0.74949204       0.00000000
Si      -1.35750000       1.35750000       1.35750000       0.00000000
Si       1.35750000       1.35750000      -1.35750000       0.00000000
Si       1.31175768      -1.45223178       1.32633180       0.00000000
Si       0.00000000       2.71500000      -2.71500000       0.00000000
Si      -2.71500000       0.00000000      -2.71500000       0.00000000
Si       0.00000000       2.71500000       2.71500000       0.00000000
Si       2.71500000       2.71500000       0.00000000       0.00000000
Si      -2.71500000       2.71500000       0.00000000       0.00000000
Si       0.00000000      -2.71500000      -2.71500000       0.00000000
