10
Lattice="10.86 0.0 0.0 0.0 10.86 0.0 0.0 0.0 10.86" Properties=species:S:1:pos:R:3:initial_magmoms:R:1 pbc="T T T"
Si       1.43770110       1.32123846      -1.26629772       0.00000000
Si      -1.27729890       1.32123846       1.44870228       0.00000000
Si       1.43770110      -1.39376154       1.44870228       0.00000000
Si      -2.50098198      -0.01155504      -2.57674134       0.00000000
Si       0.08020110       2.67873846      -2.62379772       0.00000000
Si      -0.00218286      -2.72141826      -2.58676512       0.00000000
Si      -2.63479890       2.67873846       0.09120228       0.00000000
Si       2.79520110      -0.03626154      -2.62379772       0.00000000
Si      -2.63479890      -0.03626154       2.80620228       0.00000000
Si       2.79520110       2.67873846       0.09120228       0.00000000
