10
Lattice="10.86 0.0 0.0 0.0 10.86 0.0 0.0 0.0 10.86" Properties=species:S:1:pos:R:3:initial_magmoms:R:1 pbc="T T T"
Si       1.35920502       1.29963792      -1.11819990       0.00000000
Si      -1.34684634       1.13504376       1.45943196       0.00000000
Si       1.30390590      -1.22649582       1.45189512       0.00000000
Si      -1.37960010      -1.38866820      -1.23376116       0.00000000
Si      -0.00472410       2.66872554      -2.53827522       0.00000000
Si       2.71027590      -0.04627446      -2.53827522       0.00000000
Si      -2.71972410      -0.04627446      -2.53827522       0.00000000
Si      -0.00472410      -2.76127446      -2.53827522       0.00000000
Si       2.71027590       2.66872554       0.17672478       0.00000000
Si      -2.71972410       2.66872554       0.17672478       0.00000000
