10
Lattice="10.86 0.0 0.0 0.0 10.86 0.0 0.0 0.0 10.86" Properties=species:S:1:pos:R:3:initial_magmoms:R:1 pbc="T T T"
Si       1.42104186       1.28861502       1.28654076       0.00000000
Si      -1.29395814      -1.42638498       1.28654076       0.00000000
Si      -1.29395814       1.28861502      -1.42845924       0.00000000
Si       2.55519510      -2.71587966      -0.23341398       0.00000000
Si       0.06354186       2.64611502       2.64404076       0.00000000
Si      -2.65145814      -0.06888498       2.64404076       0.00000000
Si      -2.65145814       2.64611502      -0.07095924       0.00000000
Si      -2.60858286      -2.73493896      -0.08946468       0.00000000
Si       2.77854186      -0.06888498       2.64404076       0.00000000
Si       2.77854186       2.64611502      -0.07095924       0.00000000
