10
Lattice="10.86 0.0 0.0 0.0 10.86 0.0 0.0 0.0 10.86" Properties=species:S:1:pos:R:3:initial_magmoms:R:1 pbc="T T T"
Si       1.04631756       1.49348892       1.04320074       0.00000000
Si      -1.66868244      -1.22151108       1.04320074       0.00000000
Si       1.04631756      -1.22151108      -1.67179926       0.00000000
Si      -0.98766270       1.33740900      -1.71503292       0.00000000
Si       2.40381756       0.13598892       2.40070074       0.00000000
Si      -0.31118244      -2.57901108       2.40070074       0.00000000
Si       2.40381756      -2.57901108      -0.31429926       0.00000000
Si       2.40381756       2.85098892      -0.31429926       0.00000000
Si      -0.46057260       2.83633878       2.41645860       0.00000000
Si       2.40381756       0.13598892      -3.02929926       0.00000000
