10
Lattice="16.2900001489832 0.0 0.0 0.0 16.2900001489832 0.0 0.0 0.0 29.48377614791191" Properties=species:S:1:pos:R:3:initial_magmoms:R:1 pbc="T T T"
Si       1.40928049       1.38672536      -1.25553683       0.00000000
Si       1.40304142      -1.33866953       1.31923093       0.00000000
Si      -1.34244262      -1.36540468      -1.40021401       0.00000000
Si      -1.37560906       1.36549949       1.38264758       0.00000000
H        0.53504505       2.30601894      -2.01716203       0.00000000
H       -1.44034552       1.32324323      -2.95312450       0.00000000
Si      -2.51616971       0.28034113      -2.59321605       0.00000000
Si       0.02598255      -2.65382999       2.71115115       0.00000000
Si       2.78780547      -2.60614916      -0.13388583       0.00000000
Si       2.63891486       2.78582460       0.14462087       0.00000000
