10
Lattice="16.2900001489832 0.0 0.0 0.0 16.2900001489832 0.0 0.0 0.0 29.48377614791191" Properties=species:S:1:pos:R:3:initial_magmoms:R:1 pbc="T T T"
Si       1.33185249       1.88915132      -0.47221216       0.00000000
Si      -0.84893707      -1.10245834      -1.91169856       0.00000000
Si       0.90942510      -1.66866617       1.40944243       0.00000000
Si      -1.52482546       1.57571542       1.00430587       0.00000000
Si      -0.62310880       3.30888999      -0.40413412       0.00000000
Si       2.54550800       1.91531306       1.56818309       0.00000000
H       -1.63253494      -3.11388240       0.55865859       0.00000000
H       -2.38633841      -1.45756405       2.20824638       0.00000000
H        2.96049576      -0.98365537      -1.79119837       0.00000000
Si      -0.21582621      -3.61218862       0.75923672       0.00000000
