10
Lattice="16.2900001489832 0.0 0.0 0.0 16.2900001489832 0.0 0.0 0.0 29.48377614791191" Properties=species:S:1:pos:R:3:initial_magmoms:R:1 pbc="T T T"
Si      -1.29938815      -1.37624437       1.36083843       0.00000000
Si       1.42040656      -1.28357056      -1.33539098       0.00000000
Si      -1.28000305       1.33260346      -1.47821334       0.00000000
Si       1.46249992       1.40581072       1.21834334       0.00000000
Si       2.28139823       0.49780611      -2.61500397       0.00000000
Si       0.47868165       2.13486968      -2.83081271       0.00000000
Si      -2.59411736      -2.70389567      -0.09736427       0.00000000
Si      -2.57958668       0.05406651       2.72617314       0.00000000
Si       0.08386092       2.72246627       2.59912754       0.00000000
Si       0.10567323      -2.76490173       2.62359908       0.00000000
