10
Lattice="16.2900001489832 0.0 0.0 0.0 16.2900001489832 0.0 0.0 0.0 29.48377614791191" Properties=species:S:1:pos:R:3:initial_magmoms:R:1 pbc="T T T"
Si       1.37642356       1.32022306       1.35430777       0.00000000
Si       1.37863900      -1.31665555      -1.38078420       0.00000000
Si      -1.26913762      -1.33840270       1.50912708       0.00000000
Si      -1.29277441       1.39494529      -1.44069524       0.00000000
Si      -0.08386092      -2.72246627      -2.59912754       0.00000000
Si      -2.66344760      -2.66839976       0.12704559       0.00000000
Si      -0.00726534       2.70844058       2.66170686       0.00000000
Si      -2.60664437       2.78322798      -0.06961120       0.00000000
Si       2.77853646      -2.67294467      -0.05852530       0.00000000
Si       2.70979265       2.75208150      -0.04372444       0.00000000
