10
Lattice="16.2900001489832 0.0 0.0 0.0 16.2900001489832 0.0 0.0 0.0 29.48377614791191" Properties=species:S:1:pos:R:3:initial_magmoms:R:1 pbc="T T T"
Si       1.72828757       0.17202240      -1.49447365       0.00000000
Si      -1.28682856      -1.68971285      -1.05743563       0.00000000
Si      -1.08416467       2.11885661       0.12554192       0.00000000
Si       0.04463460       1.68228461       2.12165253       0.00000000
Si      -3.20373804      -1.03088008       0.09081003       0.00000000
Si       3.35634276      -0.47682459       0.08836288       0.00000000
Si      -3.19556046       1.26713395      -0.49659524       0.00000000
Si      -2.32088519      -1.33975477       2.31571310       0.00000000
Si       0.70636699      -0.90341083      -3.40051132       0.00000000
Si       1.96840217       2.44548740      -1.90117285       0.00000000
