10
Lattice="16.2900001489832 0.0 0.0 0.0 16.2900001489832 0.0 0.0 0.0 29.48377614791191" Properties=species:S:1:pos:R:3:initial_magmoms:R:1 pbc="T T T"
Si      -1.28774080      -1.33801174       1.45457620       0.00000000
Si       1.33416730      -1.46652355      -1.31243197       0.00000000
Si      -1.37248138       1.48913407      -1.25384770       0.00000000
Si       1.43167924       1.35638686       1.35415446       0.00000000
Si      -2.68309334      -2.62485659       0.06049481       0.00000000
Si       2.74235637      -2.64031580       0.16739119       0.00000000
Si      -2.60161076       0.05027094       2.82566024       0.00000000
Si       0.01746288       2.86453137      -2.59115808       0.00000000
Si      -2.66515805       2.80183116       0.18715711       0.00000000
Si       2.76537414      -0.29851425      -2.72872938       0.00000000
