10
Lattice="16.2900001489832 0.0 0.0 0.0 16.2900001489832 0.0 0.0 0.0 29.48377614791191" Properties=species:S:1:pos:R:3:initial_magmoms:R:1 pbc="T T T"
H        1.64424745      -0.34993690      -0.26573727       0.00000000
Si      -0.79542442       0.29718662      -2.17896899       0.00000000
Si      -1.04414014      -2.08279869       0.57039313       0.00000000
Si       0.13841613       1.83817176       1.54716115       0.00000000
Si       1.55701450       0.56817077       2.94442679       0.00000000
Si       3.08503281      -0.95482370      -1.01999124       0.00000000
Si      -1.26597736       2.56902262      -1.84479987       0.00000000
Si      -3.16887744      -1.81510512      -0.46808443       0.00000000
Si       1.46238589      -1.74961932       2.93561114       0.00000000
Si      -0.08443107      -3.55225445      -1.19135094       0.00000000
