10
Lattice="16.2900001489832 0.0 0.0 0.0 16.2900001489832 0.0 0.0 0.0 29.48377614791191" Properties=species:S:1:pos:R:3:initial_magmoms:R:1 pbc="T T T"
Si       1.36508572       1.31548267      -1.36801773       0.00000000
Si       1.22033278      -1.45427347       1.38688735       0.00000000
Si      -1.37904625      -1.37948608      -1.34443071       0.00000000
Si      -1.29472921       1.32121675       1.48981521       0.00000000
Si      -0.65119276      -2.27144504       2.58670013       0.00000000
Si      -2.26747028      -0.43468236       2.71946558       0.00000000
Si       2.66264939       2.63454914       0.12778269       0.00000000
Si      -0.04878855       2.68159466      -2.64280776       0.00000000
Si      -2.78873400       0.00747711      -2.60551078       0.00000000
Si      -2.77842243       2.64873773       0.17150713       0.00000000
