10
Lattice="16.2900001489832 0.0 0.0 0.0 16.2900001489832 0.0 0.0 0.0 29.48377614791191" Properties=species:S:1:pos:R:3:initial_magmoms:R:1 pbc="T T T"
Si       1.32855507      -1.25375677      -1.48412484       0.00000000
Si       1.42688151       1.31310743       1.38768341       0.00000000
Si      -1.39467520      -1.41768304       1.34195407       0.00000000
Si      -1.39451230       1.37673128      -1.42315239       0.00000000
H        2.29067669      -2.13226018      -0.68443638       0.00000000
H       -2.35754453       2.29728408      -0.67193526       0.00000000
Si      -0.06799185       1.76013761       3.18345176       0.00000000
Si      -1.93535660       0.19583822       3.09423386       0.00000000
Si      -0.04899837      -2.61348308      -2.82678652       0.00000000
Si      -2.89270362      -2.54804615      -0.12480482       0.00000000
