10
Lattice="16.2900001489832 0.0 0.0 0.0 16.2900001489832 0.0 0.0 0.0 29.48377614791191" Properties=species:S:1:pos:R:3:initial_magmoms:R:1 pbc="T T T"
Si      -0.35574102      -2.33023565      -0.11525208       0.00000000
Si      -1.98022871       0.60219244       1.17864344       0.00000000
Si       0.58968172       0.61113565      -2.24342053       0.00000000
Si       1.70556302       0.49213719       1.62322930       0.00000000
Si      -1.40050018      -2.62120763       1.96482833       0.00000000
Si      -0.94747528       1.46895076       3.11395850       0.00000000
Si       1.52347339       2.92820409       1.38632715       0.00000000
Si      -0.55016218      -1.07968492      -3.43851591       0.00000000
Si       2.94660039       0.07462449      -2.37836777       0.00000000
Si      -1.55180170      -2.81870760      -2.10080750       0.00000000
