10
Lattice="16.2900001489832 0.0 0.0 0.0 16.2900001489832 0.0 0.0 0.0 29.48377614791191" Properties=species:S:1:pos:R:3:initial_magmoms:R:1 pbc="T T T"
Si      -0.00807984       0.68488048      -1.32464709       0.00000000
H        0.50122701      -0.00092853       1.66875225       0.00000000
H       -1.47416356      -0.98370424       0.73278977       0.00000000
H       -0.65156743       1.02496681       1.48660148       0.00000000
Si       1.37546245      -0.92022211       2.43037745       0.00000000
Si      -1.51733206      -0.49700790      -2.65392314       0.00000000
Si      -0.83636119       2.89504254      -1.10935656       0.00000000
Si       2.03844917       0.42893199      -2.56550130       0.00000000
Si      -1.56432871       1.85945465       2.32972550       0.00000000
Si       1.13798683      -3.17375304      -0.51626092       0.00000000
