10
Lattice="16.2900001489832 0.0 0.0 0.0 16.2900001489832 0.0 0.0 0.0 29.48377614791191" Properties=species:S:1:pos:R:3:initial_magmoms:R:1 pbc="T T T"
Si      -1.49802841      -1.13036311      -1.46675890       0.00000000
Si       1.39467520       1.41768304      -1.34195407       0.00000000
Si       0.58223719      -2.21009690       0.78515296       0.00000000
Si      -0.54068139       1.61352126       1.75227978       0.00000000
H       -2.91064836       0.92155789       0.21475983       0.00000000
Si      -1.44243064      -2.94943485       1.73918899       0.00000000
Si      -0.10410939      -2.48536532      -2.83914022       0.00000000
Si      -0.64868410       0.32500179       3.72474441       0.00000000
Si      -2.94783843      -2.46337382      -0.11590072       0.00000000
Si       1.32668335       3.17782065       1.84149769       0.00000000
