10
Lattice="16.2900001489832 0.0 0.0 0.0 16.2900001489832 0.0 0.0 0.0 29.48377614791191" Properties=species:S:1:pos:R:3:initial_magmoms:R:1 pbc="T T T"
Si      -0.70604119       2.26698158      -0.12616108       0.00000000
Si      -0.28279440      -1.17854893      -2.08305827       0.00000000
Si       2.37182402       0.43429140       0.20930533       0.00000000
Si      -1.56300922      -0.59406373       1.75682029       0.00000000
H        1.51031107      -2.59898807       1.41324584       0.00000000
Si      -2.69923673       1.48067956       2.21691461       0.00000000
Si      -3.35821611      -1.63774775       0.68944862       0.00000000
Si       0.31587939       3.34241481       1.77987660       0.00000000
Si      -0.33796863       3.05523840      -2.26346949       0.00000000
Si       0.70162660       0.15227892      -3.77822798       0.00000000
