10
Lattice="16.2900001489832 0.0 0.0 0.0 16.2900001489832 0.0 0.0 0.0 29.48377614791191" Properties=species:S:1:pos:R:3:initial_magmoms:R:1 pbc="T T T"
Si      -0.58986091      -1.47808945       1.73856983       0.00000000
Si      -1.81545536       1.50719968      -0.01427015       0.00000000
Si       0.33060555      -1.62388495      -1.72373949       0.00000000
Si       1.84644708       1.48465432       0.61113971       0.00000000
H        2.62918159       0.68137813       1.61532764       0.00000000
H        0.71729758       3.14714658      -0.66987139       0.00000000
Si      -0.78208291       3.37479933      -0.90807082       0.00000000
Si      -2.62203842      -0.59378680       2.45387572       0.00000000
Si      -2.39029688       1.71185096       2.29545939       0.00000000
Si      -1.96854878      -2.38756016      -2.22319466       0.00000000
