10
Lattice="16.2900001489832 0.0 0.0 0.0 16.2900001489832 0.0 0.0 0.0 29.48377614791191" Properties=species:S:1:pos:R:3:initial_magmoms:R:1 pbc="T T T"
Si       0.30105549       2.31132296       0.10832339       0.00000000
Si      -1.06644115      -0.14752224       2.15449746       0.00000000
Si      -1.72866224      -0.40252590      -1.64056576       0.00000000
Si       2.25680033      -1.30728880       0.15169403       0.00000000
Si       1.46857609       2.18805653       2.14718548       0.00000000
Si      -1.96040378      -2.70816365      -1.48214943       0.00000000
Si      -1.30655575      -2.42098724       2.56119667       0.00000000
H        2.98955223       2.27871038      -0.01370996       0.00000000
H        2.82041642       1.49139838       2.04183995       0.00000000
Si       1.19718469       3.12435687      -1.88324672       0.00000000
