10
Lattice="16.2900001489832 0.0 0.0 0.0 16.2900001489832 0.0 0.0 0.0 29.48377614791191" Properties=species:S:1:pos:R:3:initial_magmoms:R:1 pbc="T T T"
Si       1.26884440       1.51640516      -1.24106976       0.00000000
Si      -1.33675741       1.27114292       1.48845011       0.00000000
Si      -1.36169740      -1.28408533      -1.46742228       0.00000000
Si       1.42223104      -1.47679831       1.23524639       0.00000000
H        0.10855656       1.89114033      -2.65193299       0.00000000
Si       2.67331934       0.23812885      -2.52453359       0.00000000
Si      -2.62202213      -2.71842473      -0.01867797       0.00000000
Si      -2.67224420       0.22807792      -2.74059070       0.00000000
Si       0.03782538       2.61866802       2.82482585       0.00000000
Si       2.70352100      -0.11149691       2.74740145       0.00000000
