10
Lattice="16.2900001489832 0.0 0.0 0.0 16.2900001489832 0.0 0.0 0.0 29.48377614791191" Properties=species:S:1:pos:R:3:initial_magmoms:R:1 pbc="T T T"
Si      -1.38911347      -1.42265458      -1.23174372       0.00000000
Si      -1.25665948       1.27658215       1.51242927       0.00000000
Si       1.30323259      -1.31502655       1.44903915       0.00000000
Si       1.36761067       1.39176874      -1.31474055       0.00000000
Si       0.65824633       2.12652920       2.66775103       0.00000000
Si       2.40769460       0.45605484       2.53902487       0.00000000
Si      -0.48373155      -2.17350956       2.79520940       0.00000000
Si      -2.28042083      -0.47643363       2.72533285       0.00000000
Si      -2.79417486      -0.03399723      -2.49450436       0.00000000
Si       0.00729792      -2.72556952      -2.60745671       0.00000000
