10
Lattice="16.2900001489832 0.0 0.0 0.0 16.2900001489832 0.0 0.0 0.0 29.48377614791191" Properties=species:S:1:pos:R:3:initial_magmoms:R:1 pbc="T T T"
Si      -0.66327994      -0.15480387      -2.24253601       0.00000000
Si      -0.90316648       2.03722742       0.77713337       0.00000000
Si      -1.34210053      -1.92945278       0.38199180       0.00000000
Si       2.37591281      -0.46450935       0.44275787       0.00000000
Si       0.07649784      -3.19945377       1.77925744       0.00000000
Si       1.32649471      -1.24033690      -3.18757949       0.00000000
Si       3.14159169      -1.29727045      -1.63564197       0.00000000
Si       2.28354851      -2.38843982       1.84910450       0.00000000
Si      -0.59127814       2.19388835       3.16558459       0.00000000
Si       0.34116147       3.89018236      -0.01191145       0.00000000
