10
Lattice="16.2900001489832 0.0 0.0 0.0 16.2900001489832 0.0 0.0 0.0 29.48377614791191" Properties=species:S:1:pos:R:3:initial_magmoms:R:1 pbc="T T T"
Si       1.41859837      -1.27000099       1.39726564       0.00000000
Si       1.34210053       1.92945278      -0.38199180       0.00000000
Si      -0.13841613      -1.83817176      -1.54716115       0.00000000
Si      -2.28618749       0.68093830       0.38903843       0.00000000
H        1.50583132      -2.18810866      -1.81289843       0.00000000
Si       0.67882060       1.77464891      -2.62452782       0.00000000
Si      -3.20293983       0.41761044      -1.78253014       0.00000000
Si       0.34995807      -1.30460095       3.44839297       0.00000000
Si      -1.40439349       0.73085086      -3.39196103       0.00000000
Si      -3.00113931      -0.63359956       2.23351398       0.00000000
