10
Lattice="16.2900001489832 0.0 0.0 0.0 16.2900001489832 0.0 0.0 0.0 29.48377614791191" Properties=species:S:1:pos:R:3:initial_magmoms:R:1 pbc="T T T"
H        0.46700172      -0.62636680      -1.28878067       0.00000000
Si       1.84621088       0.95252518       1.08700432       0.00000000
Si      -0.86099167      -1.78137668       1.27961299       0.00000000
Si      -1.80271658       1.63706357      -0.21580874       0.00000000
Si       0.53978544       2.31730139       2.48625127       0.00000000
Si      -2.28139823      -0.49780611       2.61500397       0.00000000
H        2.01847763      -2.56378538      -1.63214873       0.00000000
Si      -0.86840362       3.49109364       1.00642811       0.00000000
Si      -2.09062604      -3.18047592      -0.12054471       0.00000000
Si      -3.56140128       0.83479735       1.13679063       0.00000000
