10
Lattice="16.2900001489832 0.0 0.0 0.0 16.2900001489832 0.0 0.0 0.0 29.48377614791191" Properties=species:S:1:pos:R:3:initial_magmoms:R:1 pbc="T T T"
Si       1.38412873       1.39408192       1.28034477       0.00000000
Si       1.30642543      -1.36477621      -1.39924695       0.00000000
Si      -1.40818906       1.17379225      -1.47982316       0.00000000
Si      -1.35868375      -1.40929678       1.34709604       0.00000000
Si      -0.53978544      -2.31730139      -2.48625127       0.00000000
Si      -2.34250202      -0.68023783      -2.70206001       0.00000000
Si       0.02301777       2.34180155      -2.89612057       0.00000000
Si      -0.02753010       2.65944026       2.68415581       0.00000000
Si      -2.74235637       2.64031580      -0.16739119       0.00000000
Si       2.66685221      -2.73362492      -0.03160071       0.00000000
