10
Lattice="16.2900001489832 0.0 0.0 0.0 16.2900001489832 0.0 0.0 0.0 29.48377614791191" Properties=species:S:1:pos:R:3:initial_magmoms:R:1 pbc="T T T"
Si       0.56306386      -0.58863916      -2.19200082       0.00000000
Si      -1.89876242       1.40076082      -0.15986103       0.00000000
Si       1.45489249       1.39460320       1.31624422       0.00000000
Si       0.00043169      -2.29060208       0.82946707       0.00000000
H       -3.01262376       0.16975809      -0.19400325       0.00000000
Si      -0.13643690       2.30944961       2.79615288       0.00000000
Si       2.23788764      -2.86622553       0.24990449       0.00000000
Si       2.16872030      -2.39370149      -2.07191340       0.00000000
Si       1.49820760       1.21968118      -3.35386799       0.00000000
Si      -1.26750536      -1.48183615      -3.40679137       0.00000000
