10
Lattice="16.2900001489832 0.0 0.0 0.0 16.2900001489832 0.0 0.0 0.0 29.48377614791191" Properties=species:S:1:pos:R:3:initial_magmoms:R:1 pbc="T T T"
Si      -1.37642356      -1.32022306      -1.35430777       0.00000000
Si      -1.38368890       1.38821752       1.30739909       0.00000000
Si       1.43567029      -1.36143676       1.32293704       0.00000000
Si       1.33336909       1.43185843      -1.39803221       0.00000000
Si      -2.64556118      -2.65862576       0.15481931       0.00000000
Si       0.00043983       2.54700668       2.78665910       0.00000000
Si       2.78953221       0.10153557       2.55524094       0.00000000
Si       0.00221544      -2.63687861      -2.73509198       0.00000000
Si       2.79943653      -2.57188151      -0.13025932       0.00000000
Si      -2.60402168       2.84249100      -0.07948826       0.00000000
