10
Lattice="16.2900001489832 0.0 0.0 0.0 16.2900001489832 0.0 0.0 0.0 29.48377614791191" Properties=species:S:1:pos:R:3:initial_magmoms:R:1 pbc="T T T"
Si       1.34004962      -0.21486510      -1.92779670       0.00000000
Si      -1.30204342       1.92200825      -0.50765166       0.00000000
Si       1.17961593      -0.05258412       2.10107875       0.00000000
Si      -1.34431597      -2.01051182      -0.18353651       0.00000000
H        1.30934623       2.49481352       0.38128419       0.00000000
Si       1.97985078      -2.44936442      -1.43509332       0.00000000
Si      -2.73225656       0.91180018      -2.17307224       0.00000000
H        1.15460100       2.55072080      -2.28572975       0.00000000
Si      -0.52056324      -0.97438636       3.44265838       0.00000000
Si      -1.84933856      -2.32417577       2.09100651       0.00000000
