10
Lattice="16.2900001489832 0.0 0.0 0.0 16.2900001489832 0.0 0.0 0.0 29.48377614791191" Properties=species:S:1:pos:R:3:initial_magmoms:R:1 pbc="T T T"
Si       1.77893318       1.27182547       0.83459725       0.00000000
Si      -1.56872701       1.66420271      -0.59863859       0.00000000
Si       0.23275152      -0.81902863      -2.21172547       0.00000000
Si      -0.96368383      -1.85399750       1.20326239       0.00000000
Si      -3.34345574       0.03319902      -0.81357532       0.00000000
Si      -2.70365458      -2.20130030      -0.32087194       0.00000000
Si       1.04878279       1.34785090       3.11133445       0.00000000
Si      -0.75471571       2.15863679      -2.81304708       0.00000000
Si       3.71027559      -0.01848915       0.34572676       0.00000000
Si       2.06643539       0.17181063      -3.26473853       0.00000000
