10
Lattice="16.2900001489832 0.0 0.0 0.0 16.2900001489832 0.0 0.0 0.0 29.48377614791191" Properties=species:S:1:pos:R:3:initial_magmoms:R:1 pbc="T T T"
Si       1.36331011       1.30794040       1.37172266       0.00000000
Si      -1.35826673      -1.41468877       1.28339811       0.00000000
Si       1.59736483      -1.17014329      -1.27293668       0.00000000
Si      -1.30501635       1.43145118      -1.36292116       0.00000000
H        2.67318902      -0.12724119      -1.63284513       0.00000000
H       -1.67550145      -1.21448467      -2.71944022       0.00000000
Si      -2.58075305       0.04588893      -2.69305224       0.00000000
Si      -2.64452693      -2.64062206      -0.25898962       0.00000000
Si       2.58302387       2.71591769      -0.03590941       0.00000000
Si       0.08187354       2.07244640      -3.12283725       0.00000000
