10
Lattice="16.2900001489832 0.0 0.0 0.0 16.2900001489832 0.0 0.0 0.0 29.48377614791191" Properties=species:S:1:pos:R:3:initial_magmoms:R:1 pbc="T T T"
Si       0.62743379       0.75738727       2.12129873       0.00000000
Si       0.21124872       1.65076346      -1.68308136       0.00000000
Si      -1.67641206      -1.60536322      -0.47064952       0.00000000
Si       1.69341882      -1.71776423      -0.32553037       0.00000000
H        0.66633431       2.93765718      -1.03520486       0.00000000
Si       0.00668542      -3.09435069      -1.31730563       0.00000000
Si       3.15705904      -0.45568017      -1.66595129       0.00000000
Si       1.80257811       0.73591705      -3.16299002       0.00000000
Si       2.59801882      -0.46952667       2.64195273       0.00000000
Si      -2.46054751      -2.60309315       1.50824257       0.00000000
