10
Lattice="16.2900001489832 0.0 0.0 0.0 16.2900001489832 0.0 0.0 0.0 29.48377614791191" Properties=species:S:1:pos:R:3:initial_magmoms:R:1 pbc="T T T"
Si       1.27553959      -1.39461949      -1.37443930       0.00000000
Si       1.39282759       1.35128809       1.30611359       0.00000000
Si      -1.33218155       1.42328989      -1.31537740       0.00000000
Si      -1.40146129      -1.41537295       1.27630550       0.00000000
Si      -0.04324995       2.63655281       2.63995963       0.00000000
Si       2.49525335       0.01335780      -2.78207137       0.00000000
Si      -2.63237769       0.12057858      -2.71777734       0.00000000
Si       2.64000629       2.74691757      -0.18151982       0.00000000
Si      -2.78140529       2.63546138       0.05244279       0.00000000
Si      -2.81135527      -0.11220552       2.61808266       0.00000000
