10
Lattice="16.2900001489832 0.0 0.0 0.0 16.2900001489832 0.0 0.0 0.0 29.48377614791191" Properties=species:S:1:pos:R:3:initial_magmoms:R:1 pbc="T T T"
Si      -1.32892192       1.39188277      -1.37161475       0.00000000
Si       1.37642356       1.34690608       1.37948692       0.00000000
Si      -1.37494117      -1.34249964       1.39101507       0.00000000
Si       1.33677370      -1.33828216      -1.44903915       0.00000000
Si       2.69514518      -2.65669703      -0.00719404       0.00000000
Si       2.67630595       2.70177797      -0.03726749       0.00000000
Si      -2.67261887      -2.72331384      -0.03558692       0.00000000
Si      -2.70350471       0.04435767      -2.70799049       0.00000000
Si      -2.76004731       0.07306065       2.70316105       0.00000000
Si       2.68492906       0.09464490      -2.77740120       0.00000000
