10
Lattice="16.2900001489832 0.0 0.0 0.0 16.2900001489832 0.0 0.0 0.0 29.48377614791191" Properties=species:S:1:pos:R:3:initial_magmoms:R:1 pbc="T T T"
Si      -1.32659245       1.41869611      -1.23808273       0.00000000
Si      -0.77467096      -2.08635806      -0.79892188       0.00000000
Si       2.26349552       0.29367612      -0.71663266       0.00000000
Si      -0.81401131      -0.49443408       2.21440849       0.00000000
H       -2.60505284       1.42746013      -0.41401118       0.00000000
H        1.12381453       2.78458005       0.37880756       0.00000000
Si       0.98746723      -2.97766542       0.60132161       0.00000000
H       -2.77418865       0.64014814       1.64153872       0.00000000
H        0.61486606       0.10044414      -3.29086116       0.00000000
Si       2.82115110      -1.98682616      -0.45169145       0.00000000
