10
Lattice="16.2900001489832 0.0 0.0 0.0 16.2900001489832 0.0 0.0 0.0 29.48377614791191" Properties=species:S:1:pos:R:3:initial_magmoms:R:1 pbc="T T T"
Si       1.83057248       1.05334399      -1.05958795       0.00000000
Si       0.41446647      -1.62517186       1.67479642       0.00000000
Si      -1.19716840       1.50682501       1.41707873       0.00000000
Si      -1.56278116      -1.50664582      -1.09950898       0.00000000
Si      -1.57530817      -0.53963883       2.61983990       0.00000000
H        3.10554192       0.32685885      -0.36875359       0.00000000
H        0.11719026       3.38097324      -1.01887085       0.00000000
Si      -0.69032134      -1.97638427      -3.24746104       0.00000000
Si      -2.75789703       2.70080057       0.17507466       0.00000000
Si       0.35313462      -3.83611585       0.76076988       0.00000000
