10
Lattice="16.2900001489832 0.0 0.0 0.0 16.2900001489832 0.0 0.0 0.0 29.48377614791191" Properties=species:S:1:pos:R:3:initial_magmoms:R:1 pbc="T T T"
Si       2.03628260      -0.04857678       1.03252184       0.00000000
Si      -1.50482134      -0.06773382       1.78998953       0.00000000
Si      -0.71876368      -1.84180394      -1.31173320       0.00000000
Si       0.12036681       2.28089324      -0.82775702       0.00000000
Si      -2.16003773      -0.43590086      -2.67789345       0.00000000
Si      -2.16130835       2.74043415      -0.20482379       0.00000000
Si       2.09761445       2.16236720       1.94654839       0.00000000
Si       0.99282664       1.81115480      -2.97570908       0.00000000
Si      -1.97537429       2.20410218       2.12415865       0.00000000
Si       3.57153366      -0.43472961      -0.70890791       0.00000000
