10
Lattice="16.2900001489832 0.0 0.0 0.0 16.2900001489832 0.0 0.0 0.0 29.48377614791191" Properties=species:S:1:pos:R:3:initial_magmoms:R:1 pbc="T T T"
H       -0.46907055      -1.10074789      -0.93439983       0.00000000
Si       0.79737922      -0.87882922       2.03992350       0.00000000
Si       1.65812849       1.03907395      -1.33508435       0.00000000
Si      -1.99790336       1.10195335       0.79193423       0.00000000
H       -2.10162179      -0.75634471      -1.92431762       0.00000000
H       -3.04142448      -0.76240459       0.31662627       0.00000000
H       -1.93994354      -2.35856396      -0.88554522       0.00000000
H       -0.72905896      -2.53601093      -2.04186943       0.00000000
Si       0.32695659       2.16953480      -2.91205360       0.00000000
Si      -1.12454758      -1.34679205       3.27149032       0.00000000
