10
Lattice="16.2900001489832 0.0 0.0 0.0 16.2900001489832 0.0 0.0 0.0 29.48377614791191" Properties=species:S:1:pos:R:3:initial_magmoms:R:1 pbc="T T T"
Si      -1.54756630       1.59635209       0.86717682       0.00000000
Si       0.87571783       1.50028507      -1.71666338       0.00000000
Si      -0.22643100      -2.20802807      -1.03897879       0.00000000
Si       0.80065351      -0.57508588       2.37267740       0.00000000
H       -2.31063878      -0.66474604      -2.46761516       0.00000000
Si       0.08966016       3.27435519       1.38505935       0.00000000
Si       1.99998848      -2.97890346      -0.53433448       0.00000000
Si       1.59448150       3.34208901      -0.40493018       0.00000000
Si       2.30527937       0.15291423      -3.07748707       0.00000000
H       -2.96352570      -1.44795295       2.11705306       0.00000000
