10
Lattice="16.2900001489832 0.0 0.0 0.0 16.2900001489832 0.0 0.0 0.0 29.48377614791191" Properties=species:S:1:pos:R:3:initial_magmoms:R:1 pbc="T T T"
Si      -1.31092147      -1.40339980       1.30692735       0.00000000
Si      -1.39901779       1.33291297      -1.32352671       0.00000000
Si       1.40657635      -1.36963063      -1.29050488       0.00000000
Si       1.25621965       1.33491664       1.47920105       0.00000000
H        1.06152157      -1.10408734       3.23858642       0.00000000
Si       0.18101448      -2.52478712       2.65365779       0.00000000
Si      -2.77307931       2.53964360       0.20031278       0.00000000
Si       2.70600588       2.62448192       0.14960068       0.00000000
Si       0.00410508       2.65660580      -2.70009474       0.00000000
Si       0.02761155      -2.68270238      -2.68759361       0.00000000
