10
Lattice="16.2900001489832 0.0 0.0 0.0 16.2900001489832 0.0 0.0 0.0 29.48377614791191" Properties=species:S:1:pos:R:3:initial_magmoms:R:1 pbc="T T T"
Si       0.03935664      -0.27481230       2.32293827       0.00000000
Si       1.41146335      -1.68886577      -0.83167836       0.00000000
Si       0.87472414       2.17273416      -0.24913791       0.00000000
Si      -2.29473974      -0.42469659      -0.42049762       0.00000000
H       -0.56606122       2.77762096       0.50511605       0.00000000
Si      -0.31001499      -3.34265916      -1.14258478       0.00000000
Si      -3.25444881       1.04475916       1.34124646       0.00000000
Si      -2.33968385      -2.89481448      -0.05127229       0.00000000
Si       3.01381293      -1.98337268       0.92755960       0.00000000
Si       2.16098255      -1.04791942       2.89984732       0.00000000
