10
Lattice="16.2900001489832 0.0 0.0 0.0 16.2900001489832 0.0 0.0 0.0 29.48377614791191" Properties=species:S:1:pos:R:3:initial_magmoms:R:1 pbc="T T T"
H        1.16255215       0.15428259       0.93307306       0.00000000
Si      -1.05479380       2.09025300       0.04569985       0.00000000
Si      -0.90494209      -1.96916780       0.95671905       0.00000000
Si       1.17204922      -0.56944954      -2.02509316       0.00000000
Si       2.57517209      -1.89763841      -0.74844566       0.00000000
Si       0.81515161       3.17637084       0.92393309       0.00000000
Si       1.12536208      -3.23064912       0.60241251       0.00000000
Si      -2.72965016      -2.33694713      -0.56594108       0.00000000
H        1.89944660       3.12513879      -0.13925187       0.00000000
Si      -1.83681155       2.63906147      -2.15122476       0.00000000
