10
Lattice="16.2900001489832 0.0 0.0 0.0 16.2900001489832 0.0 0.0 0.0 29.48377614791191" Properties=species:S:1:pos:R:3:initial_magmoms:R:1 pbc="T T T"
H        0.29163987       0.33125715       0.64062349       0.00000000
Si       1.44329401      -1.22144050      -1.88312878       0.00000000
Si       1.76365316      -2.10504269       0.33720595       0.00000000
Si       0.52852905       2.71813313      -0.49061004       0.00000000
H       -0.18559197      -0.47498382       2.80467369       0.00000000
Si       1.48823812       1.24867738      -2.25235411       0.00000000
Si      -2.31484160      -1.80445961       0.64852514       0.00000000
Si       0.76264894       2.48070638       1.96235169       0.00000000
Si       2.78094738      -0.42313275       1.65268359       0.00000000
Si      -0.34425657      -3.03137355       1.16917914       0.00000000
