10
Lattice="16.2900001489832 0.0 0.0 0.0 16.2900001489832 0.0 0.0 0.0 29.48377614791191" Properties=species:S:1:pos:R:3:initial_magmoms:R:1 pbc="T T T"
H        0.45508559       1.28689372       0.64787650       0.00000000
Si       1.59132939      -0.91484641      -1.47990866       0.00000000
Si      -1.99514220       0.57458089      -1.12524832       0.00000000
Si      -0.21124872      -1.65076346       1.68308136       0.00000000
H        0.15957684       2.72373689       1.66760238       0.00000000
Si      -1.76232552      -0.90868879      -2.95601391       0.00000000
Si       2.94581032      -2.10644363       0.01713007       0.00000000
Si       0.13643690      -2.30944961      -2.79615288       0.00000000
H       -1.90810473       2.43708176       2.14170150       0.00000000
Si       1.48217010      -3.36852768       1.35755099       0.00000000
