10
Lattice="16.2900001489832 0.0 0.0 0.0 16.2900001489832 0.0 0.0 0.0 29.48377614791191" Properties=species:S:1:pos:R:3:initial_magmoms:R:1 pbc="T T T"
H       -1.11386134      -1.23100273      -0.03414221       0.00000000
Si      -0.91916326       1.20800125      -1.79352759       0.00000000
Si       1.89876242      -1.40076082       0.15986103       0.00000000
Si      -0.23281668       1.48326967       1.83076560       0.00000000
Si      -1.99436843      -2.65170251      -0.61907085       0.00000000
Si      -2.31308228       2.56300346      -0.42114626       0.00000000
Si       1.76232552       0.90868879       2.95601391       0.00000000
Si      -2.25748451       0.74393173       2.78480162       0.00000000
Si       3.35365491      -0.00615762       1.47610525       0.00000000
Si       2.46182627      -1.98939998      -2.03213979       0.00000000
