10
Lattice="16.2900001489832 0.0 0.0 0.0 16.2900001489832 0.0 0.0 0.0 29.48377614791191" Properties=species:S:1:pos:R:3:initial_magmoms:R:1 pbc="T T T"
Si       1.80654473       0.89652016      -1.23463313       0.00000000
Si      -0.91118116      -1.84849148      -1.16481554       0.00000000
Si       0.06916734      -0.47252403       2.32181789       0.00000000
Si      -1.60565644       1.80506234      -0.12008742       0.00000000
Si      -2.19409523      -0.56109277      -2.67332347       0.00000000
Si       0.58999123       2.24728697      -2.72724929       0.00000000
Si      -2.16828861       0.10309941       2.90138048       0.00000000
Si      -3.43622566       0.91186534      -1.33487797       0.00000000
Si      -2.16872030       2.39370149       2.07191340       0.00000000
Si       2.69146640       2.73365751      -0.10177800       0.00000000
