10
Lattice="16.2900001489832 0.0 0.0 0.0 16.2900001489832 0.0 0.0 0.0 29.48377614791191" Properties=species:S:1:pos:R:3:initial_magmoms:R:1 pbc="T T T"
Si       1.54649116       1.23567796      -1.26482451       0.00000000
Si       1.02936511      -2.08611371       0.42671869       0.00000000
Si      -2.05126940       0.69717943      -0.97290565       0.00000000
Si      -0.25159905       0.92181853       2.18268395       0.00000000
H       -2.07576956      -2.55192626      -0.64422051       0.00000000
Si       3.29199726      -1.28627470       0.49886549       0.00000000
Si      -1.48429594       3.04952061      -1.11419190       0.00000000
Si       0.83544895       3.40887801      -1.05053643       0.00000000
Si      -2.49075731       0.34704216       2.71516095       0.00000000
Si       3.64073358       0.95050522      -0.16847030       0.00000000
