10
Lattice="16.2900001489832 0.0 0.0 0.0 16.2900001489832 0.0 0.0 0.0 29.48377614791191" Properties=species:S:1:pos:R:3:initial_magmoms:R:1 pbc="T T T"
Si      -0.22462281      -0.68233924       2.25120424       0.00000000
Si       0.15258843      -2.14431788      -0.98717579       0.00000000
Si      -1.97058503       1.22691394      -0.52065400       0.00000000
Si       2.10790973       0.92633086      -0.83197320       0.00000000
H        0.15866460       2.55638972       1.63549455       0.00000000
Si       2.09512208      -0.32298183       2.31485972       0.00000000
H        0.34425657       3.03137355      -1.16917914       0.00000000
Si      -0.90460000      -1.24823755      -2.96748310       0.00000000
H        0.63589645       3.36263070      -0.52855565       0.00000000
H       -2.75999029       0.17169660       2.20535697       0.00000000
