10
Lattice="16.2900001489832 0.0 0.0 0.0 16.2900001489832 0.0 0.0 0.0 29.48377614791191" Properties=species:S:1:pos:R:3:initial_magmoms:R:1 pbc="T T T"
Si      -0.34143189      -0.14506245       2.33246153       0.00000000
Si       2.23745596      -0.57562345      -0.57956259       0.00000000
Si      -1.28992985      -1.61521867      -1.25081972       0.00000000
Si      -0.00043169       2.29060208      -0.82946707       0.00000000
Si       0.56263217       1.70196293      -3.02146790       0.00000000
Si       2.16828861      -0.10309941      -2.90138048       0.00000000
Si       1.34530152       1.23152401       3.32423679       0.00000000
Si      -2.62110175      -0.48475782      -2.82778897       0.00000000
Si       3.80147516       0.87532687       0.53940568       0.00000000
Si       2.71491586      -2.87257863      -0.11224474       0.00000000
