10
Lattice="16.2900001489832 0.0 0.0 0.0 16.2900001489832 0.0 0.0 0.0 29.48377614791191" Properties=species:S:1:pos:R:3:initial_magmoms:R:1 pbc="T T T"
Si       1.32529903      -1.23707890       1.48378283       0.00000000
Si       1.72334518       0.97207318      -1.30090997       0.00000000
Si      -1.42171807       1.45715680       1.21647112       0.00000000
Si      -0.99818442      -1.78655690      -1.24592246       0.00000000
H       -0.86845412       0.76084075      -2.96571702       0.00000000
Si       0.50721522       1.30539916      -3.31483442       0.00000000
Si       2.65226615      -2.43730982      -0.03078106       0.00000000
Si       0.80476836      -3.39257172      -1.10901455       0.00000000
Si      -2.76067284       0.10461438       2.63033317       0.00000000
Si      -2.69836359      -2.70835913       0.09565716       0.00000000
