10
Lattice="16.2900001489832 0.0 0.0 0.0 16.2900001489832 0.0 0.0 0.0 29.48377614791191" Properties=species:S:1:pos:R:3:initial_magmoms:R:1 pbc="T T T"
Si      -1.17405615       1.48082617       1.33797376       0.00000000
Si       2.23915826       0.57477637      -0.53247700       0.00000000
Si      -1.21365551      -0.02616174      -2.04039524       0.00000000
Si       0.38569833      -1.62458542       1.72456503       0.00000000
Si       1.76234996       2.86309785      -0.55287977       0.00000000
Si       1.84160081      -0.15749172       2.86779845       0.00000000
Si       0.56591461       1.82812898       2.86210809       0.00000000
Si      -2.54550800      -1.91531306      -1.56818309       0.00000000
Si      -3.20430819       0.26306721       1.54730857       0.00000000
Si       2.49075731      -0.34704216      -2.71516095       0.00000000
