10
Lattice="16.2900001489832 0.0 0.0 0.0 16.2900001489832 0.0 0.0 0.0 29.48377614791191" Properties=species:S:1:pos:R:3:initial_magmoms:R:1 pbc="T T T"
Si      -1.72334518      -0.97207318       1.30090997       0.00000000
Si      -1.21612996       0.33332598      -2.01392444       0.00000000
Si       0.91743652       1.80081065       1.27778879       0.00000000
Si       1.83114263      -1.60625917      -0.04897818       0.00000000
H       -2.59179930      -0.21123243      -1.66480705       0.00000000
Si      -0.39804615      -2.20915208       2.78469280       0.00000000
Si       2.30229830       0.54289684       2.71954840       0.00000000
Si       0.92892097      -3.40938300       1.27012891       0.00000000
Si       2.56129301      -1.68228461      -2.32571538       0.00000000
Si      -2.72152960      -2.75863008       0.05498751       0.00000000
