10
Lattice="16.2900001489832 0.0 0.0 0.0 16.2900001489832 0.0 0.0 0.0 29.48377614791191" Properties=species:S:1:pos:R:3:initial_magmoms:R:1 pbc="T T T"
Si       1.41024160       1.34003203      -1.32947949       0.00000000
Si       1.38486178      -1.25791381       1.44175960       0.00000000
Si      -1.36402687       1.36130107       1.38459941       0.00000000
Si      -0.91743652      -1.80081065      -1.27778879       0.00000000
Si       2.67753845      -2.57061089       0.00075478       0.00000000
Si       0.91370611      -3.40706982      -1.32676698       0.00000000
Si      -2.64078170      -2.77288383       0.02312118       0.00000000
Si       0.03872133      -2.62251083       2.81918266       0.00000000
Si       2.75268423       2.70543671       0.07073453       0.00000000
Si      -2.71911705       2.74123236       0.03385327       0.00000000
