10
Lattice="16.2900001489832 0.0 0.0 0.0 16.2900001489832 0.0 0.0 0.0 29.48377614791191" Properties=species:S:1:pos:R:3:initial_magmoms:R:1 pbc="T T T"
Si       1.36345509       1.35963949      -1.36246593       0.00000000
Si      -1.33811388       1.38613892       1.39770789       0.00000000
Si       1.38590271      -1.29858994       1.44806618       0.00000000
Si      -1.33501780      -1.31738860      -1.50747304       0.00000000
Si      -2.67397257      -2.66993102      -0.09361099       0.00000000
Si       2.76620330      -2.62417241       0.07211732       0.00000000
Si      -2.69648535       2.70455379      -0.04413721       0.00000000
Si       2.71899488       2.70713901       0.04894307       0.00000000
Si       0.00836492       2.73957078      -2.71321207       0.00000000
Si       2.72748197      -0.00166158      -2.74706534       0.00000000
