10
Lattice="16.28999089631971 0.0 0.0 0.0 16.28999089631971 0.0 0.0 0.0 34.32429715621058" Properties=species:S:1:pos:R:3:initial_magmoms:R:1 pbc="T T T"
Si      -1.38207196       1.25301703       1.49601846       0.00000000
Si      -1.86955021      -0.97544846      -1.14614762       0.00000000
Si       1.63034718       1.14165859      -1.36719728       0.00000000
Si       1.29612525      -1.47134605       1.47078666       0.00000000
Si       3.35210244      -0.99908851      -1.26333190       0.00000000
Si      -3.54947275       0.69135412      -0.98906959       0.00000000
Si      -2.73753028       2.57081287       0.14969864       0.00000000
Si       2.77175490       2.64944470       0.11864886       0.00000000
Si      -0.04880647       2.60596669       2.85903363       0.00000000
Si      -2.76414814      -2.75483515       0.15541364       0.00000000
