10
Lattice="16.28999089631971 0.0 0.0 0.0 16.28999089631971 0.0 0.0 0.0 34.32429715621058" Properties=species:S:1:pos:R:3:initial_magmoms:R:1 pbc="T T T"
Si       1.35666378      -1.35655789      -1.35697752       0.00000000
Si      -1.35809730       1.35720135      -1.35673725       0.00000000
Si       1.35878148       1.35721764       1.35821320       0.00000000
Si      -1.35694071      -1.35941842       1.35804158       0.00000000
Si       2.71440270      -0.00234576       2.71299396       0.00000000
Si       0.00070047      -2.71326420      -2.71515640       0.00000000
Si       2.71415835       0.00096111      -2.71429829       0.00000000
Si       0.00131949      -2.71595744       2.71275369       0.00000000
Si      -0.00027693       2.71379997      -2.71491613       0.00000000
Si       2.71479366      -2.71452664      -0.00061784       0.00000000
