10
Lattice="16.28999089631971 0.0 0.0 0.0 16.28999089631971 0.0 0.0 0.0 34.32429715621058" Properties=species:S:1:pos:R:3:initial_magmoms:R:1 pbc="T T T"
Si       2.27023956       0.34831278       0.47844665       0.00000000
Si      -1.27886274       1.63923012       1.10798893       0.00000000
Si      -0.88308090      -2.03643638       0.79254846       0.00000000
Si      -0.27388377       0.81917523      -2.33446540       0.00000000
Si       0.38006199      -1.16542244      -3.35369165       0.00000000
Si      -3.50012479       0.79441443       0.73395686       0.00000000
Si      -3.26074486      -1.81512596       0.73127956       0.00000000
Si       2.56834656       2.39585175       1.61993611       0.00000000
Si       3.47214834      -1.52432372       1.36737779       0.00000000
Si      -0.52571088      -2.57387606       3.06032172       0.00000000
