10
Lattice="16.28999089631971 0.0 0.0 0.0 16.28999089631971 0.0 0.0 0.0 34.32429715621058" Properties=species:S:1:pos:R:3:initial_magmoms:R:1 pbc="T T T"
Si      -0.91380384      -1.76513553      -1.26547717       0.00000000
Si      -1.40256900       1.26304515       1.43308826       0.00000000
Si       1.32196608      -1.42944750       1.45224466       0.00000000
Si       1.27210239       1.39043295      -1.60467007       0.00000000
Si       2.67920001       2.60441262      -0.06738207       0.00000000
Si       2.56487679      -0.24448032      -2.76318439       0.00000000
Si      -1.47388662      -0.73068795      -3.40333289       0.00000000
Si      -2.63694375      -2.77506666       0.07579496       0.00000000
Si       2.61208521      -2.80137501       0.05232742       0.00000000
Si      -0.02687850       2.61710253       2.81223243       0.00000000
