10
Lattice="16.28999089631971 0.0 0.0 0.0 16.28999089631971 0.0 0.0 0.0 34.32429715621058" Properties=species:S:1:pos:R:3:initial_magmoms:R:1 pbc="T T T"
Si      -1.35650088      -1.35619137      -1.35745806       0.00000000
Si      -1.35669636       1.35729909       1.35721779       0.00000000
Si       1.35658233      -1.35394335       1.36092482       0.00000000
Si       1.35894438       1.35816246      -1.35714914       0.00000000
Si      -2.71378531       0.00073305      -2.71395504       0.00000000
Si      -2.71522860      -2.71342530      -0.00058351       0.00000000
Si       0.00156384      -2.71498914      -2.71405802       0.00000000
Si      -2.71372992       2.71560816      -0.00024027       0.00000000
Si       2.71552671       2.71435383       0.00013730       0.00000000
Si       0.00149868       2.71622718      -2.71443558       0.00000000
