10
Lattice="16.28999089631971 0.0 0.0 0.0 16.28999089631971 0.0 0.0 0.0 34.32429715621058" Properties=species:S:1:pos:R:3:initial_magmoms:R:1 pbc="T T T"
Si       0.44290881      -1.91985795      -1.24755160       0.00000000
Si       1.62585603       1.46577420      -0.93791194       0.00000000
Si      -2.21022720       0.07737750      -0.95476518       0.00000000
Si       0.43507332      -0.66487635       2.30796703       0.00000000
Si      -1.46497599      -3.19958406      -0.52087150       0.00000000
Si       3.42137241       1.00105308       0.52615745       0.00000000
Si      -1.67454684      -1.26843714       3.12076684       0.00000000
Si      -2.08661868       1.48216194      -2.80206556       0.00000000
Si       2.64956850      -2.63344140      -0.68202417       0.00000000
Si       0.75688227       1.28449908       3.52847107       0.00000000
