10
Lattice="16.28999089631971 0.0 0.0 0.0 16.28999089631971 0.0 0.0 0.0 34.32429715621058" Properties=species:S:1:pos:R:3:initial_magmoms:R:1 pbc="T T T"
Si      -0.32180895      -1.94937543      -1.22050404       0.00000000
Si       2.11089078       0.59875524      -0.80140414       0.00000000
Si      -2.16362151       1.06290621      -0.47257719       0.00000000
Si       0.56356884      -1.08696654       2.13874815       0.00000000
Si      -2.24894853       1.18314270       2.21982219       0.00000000
Si      -1.64162475      -0.99075780       2.91272716       0.00000000
Si       2.23774101       2.72228706       0.24631129       0.00000000
Si      -2.43142911      -2.55293622      -0.40770423       0.00000000
Si      -1.42794882       3.39464052      -0.39829937       0.00000000
Si       0.26611344       3.59880309       1.21305566       0.00000000
