10
Lattice="16.28999089631971 0.0 0.0 0.0 16.28999089631971 0.0 0.0 0.0 34.32429715621058" Properties=species:S:1:pos:R:3:initial_magmoms:R:1 pbc="T T T"
Si      -1.06248267       2.06374752       0.17443618       0.00000000
Si      -0.99092070      -1.57037229       1.41529454       0.00000000
Si       2.06757567       0.41567193       1.15604297       0.00000000
Si       0.22064805      -0.77041926      -2.27638866       0.00000000
Si       2.39821380       0.13198158      -2.43256430       0.00000000
Si       3.45973536      -0.70014420      -0.43090747       0.00000000
Si      -0.49313088       2.99333637      -1.87692227       0.00000000
Si       1.11970944       0.14589324       3.40129948       0.00000000
Si       0.39713391       3.15732780       1.70784068       0.00000000
Si      -2.15430363      -3.21227397       0.18751374       0.00000000
