10
Lattice="16.28999089631971 0.0 0.0 0.0 16.28999089631971 0.0 0.0 0.0 34.32429715621058" Properties=species:S:1:pos:R:3:initial_magmoms:R:1 pbc="T T T"
Si       1.69406226       0.20416257       1.61135503       0.00000000
Si      -0.96036066       2.17668609       0.49705042       0.00000000
Si      -0.73567269      -2.33173431      -0.07427782       0.00000000
Si       0.94786623       0.26977869      -2.24525650       0.00000000
Si      -2.11063014      -1.71626553      -1.98600494       0.00000000
Si      -0.82099971      -2.21149782       2.61812155       0.00000000
Si      -0.72257553       3.01143456      -1.69345880       0.00000000
Si      -1.11970944      -0.14589324      -3.40129948       0.00000000
Si       1.42794882      -3.39464052       0.39829937       0.00000000
Si      -3.59764650      -0.96695811      -0.20450428       0.00000000
