10
Lattice="16.28999089631971 0.0 0.0 0.0 16.28999089631971 0.0 0.0 0.0 34.32429715621058" Properties=species:S:1:pos:R:3:initial_magmoms:R:1 pbc="T T T"
Si      -1.69406226      -0.20416257      -1.61135503       0.00000000
Si       1.97162757      -0.87651603      -0.96674437       0.00000000
Si       0.53102142       2.33838063       0.02316891       0.00000000
Si      -0.97226865      -0.94183893       2.14705464       0.00000000
Si      -2.65442292       1.97252352      -1.11430461       0.00000000
Si       3.26713869      -0.95824296       1.15535649       0.00000000
Si      -2.51506197      -2.41566039       1.00676652       0.00000000
Si      -0.26611344      -3.59880309      -1.21305566       0.00000000
Si      -1.46401488       3.53559789       0.17543158       0.00000000
Si      -2.42973495      -2.53589688      -1.68563285       0.00000000
