10
Lattice="16.28999089631971 0.0 0.0 0.0 16.28999089631971 0.0 0.0 0.0 34.32429715621058" Properties=species:S:1:pos:R:3:initial_magmoms:R:1 pbc="T T T"
Si      -0.90964989      -1.77930783      -1.21950864       0.00000000
Si      -0.33780573      -1.10099223       2.08760492       0.00000000
Si      -1.52772507       1.90911211       0.03710459       0.00000000
Si       1.92749796       1.03210182      -1.20969188       0.00000000
Si      -2.08767753      -0.26885016      -2.57669210       0.00000000
Si       0.31086207       0.95423562       3.24241222       0.00000000
Si      -1.78028523       1.90753035       2.34592972       0.00000000
Si       0.62410248       2.46762616      -2.55407238       0.00000000
Si      -3.39794739       1.07360874      -1.21789539       0.00000000
Si       2.28524265       2.00548049       2.38317161       0.00000000
