10
Lattice="16.28999089631971 0.0 0.0 0.0 16.28999089631971 0.0 0.0 0.0 34.32429715621058" Properties=species:S:1:pos:R:3:initial_magmoms:R:1 pbc="T T T"
Si      -1.56848265      -1.03055427      -1.42960778       0.00000000
Si      -0.48684294       2.30172813      -0.19791401       0.00000000
Si      -0.63886122      -0.69335127       2.21402138       0.00000000
Si       2.32313319      -0.23640048      -0.63304337       0.00000000
Si       3.41917326       0.59987925       1.25616701       0.00000000
Si      -0.92048274      -3.32514738      -1.39923076       0.00000000
Si       0.91717587       3.49646672       1.39027211       0.00000000
Si      -0.28173555       2.88321990      -2.58973534       0.00000000
Si      -2.72111418       2.79064057       0.50844610       0.00000000
Si      -3.81182742      -0.46379259      -0.84358872       0.00000000
