10
Lattice="16.28999089631971 0.0 0.0 0.0 16.28999089631971 0.0 0.0 0.0 34.32429715621058" Properties=species:S:1:pos:R:3:initial_magmoms:R:1 pbc="T T T"
Si      -1.35834165       1.35587697       1.36233212       0.00000000
Si       1.35739683      -1.36192732       1.36188590       0.00000000
Si       1.34526078       1.35885804      -1.37735244       0.00000000
Si      -1.36980981      -1.36177705      -1.38494841       0.00000000
Si      -2.71572219       2.71118868       0.00408459       0.00000000
Si       2.71759554       2.71369734       0.00641865       0.00000000
Si      -0.00078192       2.71294800       2.71958423       0.00000000
Si      -2.71622718      -2.71786825       0.00408459       0.00000000
Si       2.71508688      -0.00273183       2.71934396       0.00000000
Si      -2.71583622      -0.00164203       2.71965288       0.00000000
