10
Lattice="16.28999089631971 0.0 0.0 0.0 16.28999089631971 0.0 0.0 0.0 34.32429715621058" Properties=species:S:1:pos:R:3:initial_magmoms:R:1 pbc="T T T"
Si      -1.34526078      -1.35885804       1.37735244       0.00000000
Si       1.37233476       1.35483930       1.38377108       0.00000000
Si       1.28707290      -1.41961486      -1.43960302       0.00000000
Si      -1.42110702       1.36788759      -1.38069906       0.00000000
Si       2.70244584      -2.71035257       0.02870543       0.00000000
Si       2.71568961       2.69944848       0.01406954       0.00000000
Si      -2.71507059      -2.72063509      -0.00759597       0.00000000
Si      -2.70360243      -0.00298107       2.73968455       0.00000000
Si       0.01203831       2.71168227       2.73923834       0.00000000
Si      -2.71122615       2.73981510       0.01921818       0.00000000
