10
Lattice="16.28999089631971 0.0 0.0 0.0 16.28999089631971 0.0 0.0 0.0 34.32429715621058" Properties=species:S:1:pos:R:3:initial_magmoms:R:1 pbc="T T T"
Si       1.77044607       0.77895522       1.31712699       0.00000000
Si      -1.27967724       1.41908706      -1.38975724       0.00000000
Si       1.42446276      -1.31502002      -1.36473482       0.00000000
Si      -1.54106658      -1.25237194       1.35491806       0.00000000
Si      -3.13727481       0.64163052       1.18079081       0.00000000
Si       2.73525390       2.62049085       0.05371756       0.00000000
Si      -2.69682579       2.66391999      -0.05368323       0.00000000
Si      -2.64318282       0.05717790      -2.74083098       0.00000000
Si       0.07530867      -2.65448695      -2.73822234       0.00000000
Si      -2.70027927      -2.72462372      -0.03195594       0.00000000
