10
Lattice="16.28999089631971 0.0 0.0 0.0 16.28999089631971 0.0 0.0 0.0 34.32429715621058" Properties=species:S:1:pos:R:3:initial_magmoms:R:1 pbc="T T T"
Si      -1.15921269      -1.47225177      -1.38687400       0.00000000
Si      -0.80146800      -0.49887311       2.20598949       0.00000000
Si       1.54106658       1.25237194      -1.35491806       0.00000000
Si      -1.59620823       1.89400246      -0.17412726       0.00000000
Si      -2.46260817      -0.03672743      -2.73125450       0.00000000
Si       0.93199977      -1.91379222       3.17877494       0.00000000
Si       0.26138934       2.67145900      -2.74467531       0.00000000
Si       3.31151265       2.03132716      -0.03779107       0.00000000
Si       0.26666730      -2.77136298      -2.71975585       0.00000000
Si      -3.08671065      -2.50435359      -0.17718212       0.00000000
