10
Lattice="16.28999089631971 0.0 0.0 0.0 16.28999089631971 0.0 0.0 0.0 34.32429715621058" Properties=species:S:1:pos:R:3:initial_magmoms:R:1 pbc="T T T"
Si      -0.20447208      -2.16970745       0.76783496       0.00000000
Si       1.09700118      -0.18404442      -2.07325736       0.00000000
Si      -2.20665969       0.71358345      -0.56552744       0.00000000
Si       1.46831544       1.34478837       1.36754941       0.00000000
Si       0.01229895       1.51817913      -3.24728627       0.00000000
Si      -1.08245421      -1.81854067       2.96170796       0.00000000
Si       3.54232566       0.85144572       0.35309424       0.00000000
Si       2.07373329      -2.80876741       1.14777081       0.00000000
Si      -2.64956850       2.63344140       0.68202417       0.00000000
Si       3.11485977       0.98230329      -1.94800793       0.00000000
