10
Lattice="16.28999089631971 0.0 0.0 0.0 16.28999089631971 0.0 0.0 0.0 34.32429715621058" Properties=species:S:1:pos:R:3:initial_magmoms:R:1 pbc="T T T"
Si       1.05584124       1.63238832       1.30809970       0.00000000
Si       1.25198913      -1.79662247       0.87743250       0.00000000
Si       0.33953736      -0.24078249      -2.36885837       0.00000000
Si      -2.93715446       0.31788306       1.69229177       0.00000000
Si       0.12082782      -3.40942274      -0.49186745       0.00000000
Si       0.59371023      -2.57092757      -2.66476830       0.00000000
Si      -0.10423157       3.77818857       0.31403317       0.00000000
Si       1.44896781       0.45126558       3.57127349       0.00000000
Si      -3.52548410      -1.59851489       0.31492560       0.00000000
Si       3.33098409       1.95291036       0.50926988       0.00000000
