10
Lattice="16.28999089631971 0.0 0.0 0.0 16.28999089631971 0.0 0.0 0.0 34.32429715621058" Properties=species:S:1:pos:R:3:initial_magmoms:R:1 pbc="T T T"
Si       1.36329381       1.32708114       1.36139506       0.00000000
Si       1.29011913      -1.37192751      -1.39991724       0.00000000
Si      -1.34975682      -1.38748446       1.36221885       0.00000000
Si      -1.32196608       1.42944750      -1.45224466       0.00000000
Si      -0.60644412      -2.24686341      -2.47498332       0.00000000
Si      -2.23576992      -0.33568803      -2.71772183       0.00000000
Si       0.00804726       2.68571601       2.72050069       0.00000000
Si       2.72345994       2.69270442      -0.02137375       0.00000000
Si      -2.72453508       2.69249265      -0.01915640       0.00000000
Si      -2.70681156      -0.02995731       2.71984853       0.00000000
