10
Lattice="16.28999089631971 0.0 0.0 0.0 16.28999089631971 0.0 0.0 0.0 34.32429715621058" Properties=species:S:1:pos:R:3:initial_magmoms:R:1 pbc="T T T"
Si      -0.56469285       1.52366886      -1.64355124       0.00000000
Si       1.59264072       0.92046645       1.46496182       0.00000000
Si      -1.68083478      -0.39972402       1.62652638       0.00000000
Si       0.83769696      -1.92194307      -1.14396081       0.00000000
Si      -0.82940535      -0.41184378      -3.03203848       0.00000000
Si       1.42172604      -0.93559986       2.92580472       0.00000000
Si      -1.70443899       1.83031182       2.46105348       0.00000000
Si      -0.59613255      -2.10194757       2.80055529       0.00000000
Si      -3.09860235      -1.05446799      -1.41131291       0.00000000
Si       1.55269764      -0.66386637      -3.22624547       0.00000000
