10
Lattice="16.28999089631971 0.0 0.0 0.0 16.28999089631971 0.0 0.0 0.0 34.32429715621058" Properties=species:S:1:pos:R:3:initial_magmoms:R:1 pbc="T T T"
Si       0.26471250       1.93551264       1.38848724       0.00000000
Si       2.38210299      -0.25202259      -0.19420698       0.00000000
Si      -2.26919700      -0.64262421       1.62072557       0.00000000
Si       1.66710231      -1.51009929       1.88807767       0.00000000
Si      -0.35122869       1.94678532      -2.20262570       0.00000000
Si       0.82940535       0.41184378       3.03203848       0.00000000
Si      -2.03983380       2.17258101       1.44604912       0.00000000
Si      -2.08841058      -1.43928666      -2.37026566       0.00000000
Si      -0.04461831      -3.15020907       2.08492762       0.00000000
Si       2.81931030      -1.30196196      -2.23392948       0.00000000
