10
Lattice="16.28999089631971 0.0 0.0 0.0 16.28999089631971 0.0 0.0 0.0 34.32429715621058" Properties=species:S:1:pos:R:3:initial_magmoms:R:1 pbc="T T T"
Si       0.02360421      -2.23003584      -0.83452710       0.00000000
Si       2.22589818       0.87531057       0.16757131       0.00000000
Si      -1.39114971       0.75061062      -1.80703796       0.00000000
Si      -1.01240721       0.35100063       2.15687139       0.00000000
Si       1.70443899      -1.83031182      -2.46105348       0.00000000
Si      -2.29588002      -2.61099378      -0.54685501       0.00000000
Si       3.29707971      -0.90984537      -0.99609166       0.00000000
Si      -3.28209291      -0.53108658      -1.31568537       0.00000000
Si       2.47772529       1.08072747       2.50739131       0.00000000
Si       0.78310917      -0.11372049       3.62094078       0.00000000
