10
Lattice="16.28999089631971 0.0 0.0 0.0 16.28999089631971 0.0 0.0 0.0 34.32429715621058" Properties=species:S:1:pos:R:3:initial_magmoms:R:1 pbc="T T T"
Si       1.35557235       1.35496962       1.38211665       0.00000000
Si      -1.36016613      -1.36562328       1.38276881       0.00000000
Si       1.28664936      -1.45331235      -1.41679108       0.00000000
Si      -1.36622601       1.34115570      -1.49825298       0.00000000
Si       2.69501760       2.70749574       0.00082722       0.00000000
Si      -2.71811682       2.69801496       0.00341870       0.00000000
Si      -2.72345994      -2.69270442       0.02137375       0.00000000
Si       2.70345582      -2.73307104       0.01622510       0.00000000
Si      -0.00180819       2.70733284       2.74135958       0.00000000
Si       2.71471221      -0.00843822       2.74194309       0.00000000
