10
Lattice="16.28999089631971 0.0 0.0 0.0 16.28999089631971 0.0 0.0 0.0 34.32429715621058" Properties=species:S:1:pos:R:3:initial_magmoms:R:1 pbc="T T T"
Si      -1.34785089      -1.34630334      -1.36796130       0.00000000
Si       1.36314720       1.36910934      -1.36535266       0.00000000
Si      -1.34974053       1.39673718       1.40396751       0.00000000
Si       1.32701598      -1.40366043       1.42363534       0.00000000
Si       0.47298015       2.31668235       2.55870616       0.00000000
Si       2.18655783       0.30224466       2.80687097       0.00000000
Si      -2.70282051       2.72236851      -0.00425622       0.00000000
Si      -2.72412783      -2.70169650       0.00803189       0.00000000
Si       0.00671148      -2.70668124      -2.72668937       0.00000000
Si      -2.70863604       0.00767259      -2.72593423       0.00000000
