10
Lattice="16.28999089631971 0.0 0.0 0.0 16.28999089631971 0.0 0.0 0.0 34.32429715621058" Properties=species:S:1:pos:R:3:initial_magmoms:R:1 pbc="T T T"
Si       1.17108810       1.42679223      -1.46417236       0.00000000
Si       0.11603367       0.81148635       2.21985651       0.00000000
Si       1.13495688      -2.06606070      -0.33400992       0.00000000
Si      -2.31207228      -0.42845958      -0.44865314       0.00000000
Si      -0.55965924      -3.26050866       0.77953955       0.00000000
Si       1.36498797      -0.03831408      -3.34322274       0.00000000
Si       0.88312977      -2.27147760      -2.67382992       0.00000000
Si      -2.35517562      -2.79578754      -0.68452984       0.00000000
Si       2.07098028      -0.00511506       3.15955332       0.00000000
Si       3.33373221       1.81348425      -0.26134534       0.00000000
