10
Lattice="16.28999089631971 0.0 0.0 0.0 16.28999089631971 0.0 0.0 0.0 34.32429715621058" Properties=species:S:1:pos:R:3:initial_magmoms:R:1 pbc="T T T"
Si       1.79520687       1.25263584      -0.76632469       0.00000000
Si      -1.29551112       0.08172693      -2.12210086       0.00000000
Si       0.73906101      -2.37514716      -0.07788187       0.00000000
Si      -0.07333758       1.32354621       2.47509213       0.00000000
Si       1.76187753       0.33138747      -2.99071201       0.00000000
Si      -1.13611347      -3.14511030       1.18446351       0.00000000
Si      -3.26713869       0.95824296      -1.15535649       0.00000000
Si      -2.42888787      -1.51019703       2.34297783       0.00000000
Si       0.97220349       3.67109811      -0.29062399       0.00000000
Si       0.39065049      -3.23703477      -2.25545083       0.00000000
