10
Lattice="16.28999089631971 0.0 0.0 0.0 16.28999089631971 0.0 0.0 0.0 34.32429715621058" Properties=species:S:1:pos:R:3:initial_magmoms:R:1 pbc="T T T"
Si      -0.56941695      -1.44409221       1.73248554       0.00000000
Si      -0.48441573       2.09687228       1.10229109       0.00000000
Si       2.24704260      -0.78498252      -0.52567690       0.00000000
Si      -1.73346777       1.41491912      -0.97278545       0.00000000
Si      -2.80686474      -0.68075910       1.86988578       0.00000000
Si       0.10774206      -3.51161901       0.81921846       0.00000000
Si       3.35122767       0.21558186       1.56306072       0.00000000
Si      -3.70784835       0.36367425      -0.11354484       0.00000000
Si      -0.93199977       1.91379222      -3.17877494       0.00000000
Si       0.40513230      -0.77076135       3.76815777       0.00000000
