10
Lattice="16.28999089631971 0.0 0.0 0.0 16.28999089631971 0.0 0.0 0.0 34.32429715621058" Properties=species:S:1:pos:R:3:initial_magmoms:R:1 pbc="T T T"
Si       1.09604007       0.83627973       1.88921037       0.00000000
Si       0.50717286       1.39079133      -1.89957631       0.00000000
Si      -2.32313319       0.23640048       0.63304337       0.00000000
Si       1.30106601      -2.06562087       0.21995022       0.00000000
Si       3.39392376       0.64244502       1.47673506       0.00000000
Si       2.71787247       0.83816937      -2.47334159       0.00000000
Si      -2.80997613       2.53812861       0.43512936       0.00000000
Si       0.12997791      -3.49241310       1.68412258       0.00000000
Si       0.56192355      -0.36075834       3.88383072       0.00000000
Si       0.87224805       3.09380724       2.40325133       0.00000000
