10
Lattice="16.28999089631971 0.0 0.0 0.0 16.28999089631971 0.0 0.0 0.0 34.32429715621058" Properties=species:S:1:pos:R:3:initial_magmoms:R:1 pbc="T T T"
Si      -1.46533437      -0.97845885      -1.53117343       0.00000000
Si      -0.61597377      -0.77551803       2.12875977       0.00000000
Si       2.30594724      -0.32112477      -0.34145830       0.00000000
Si      -0.74678247       2.16345993      -0.69297362       0.00000000
Si       0.20702961      -3.19398030       1.65305907       0.00000000
Si      -2.96797284       2.04534469       0.12583294       0.00000000
Si      -3.55995144      -0.22719663      -0.74250361       0.00000000
Si      -0.93121785       0.21857922      -3.52579377       0.00000000
Si       0.57710583       0.99696429       3.46764838       0.00000000
Si       1.08185148       3.50220895      -0.10897970       0.00000000
