10
Lattice="16.28999089631971 0.0 0.0 0.0 16.28999089631971 0.0 0.0 0.0 34.32429715621058" Properties=species:S:1:pos:R:3:initial_magmoms:R:1 pbc="T T T"
Si       0.31939803       0.87104259       2.13902275       0.00000000
Si       2.09683251       0.70882677      -0.82512224       0.00000000
Si       0.23903946      -2.36091689      -0.26282129       0.00000000
Si      -1.88488332       1.16048331      -0.92044087       0.00000000
Si      -3.59660394      -0.47962647      -0.72359091       0.00000000
Si       1.78114860       3.00240990      -1.34475807       0.00000000
Si       3.49862026       0.70030710       1.25173917       0.00000000
Si       0.78121953      -0.86616536       3.61181051       0.00000000
Si       2.03206347       2.52646497       2.05942466       0.00000000
Si       2.52657900      -2.92264496      -0.51860610       0.00000000
