10
Lattice="16.28999089631971 0.0 0.0 0.0 16.28999089631971 0.0 0.0 0.0 34.32429715621058" Properties=species:S:1:pos:R:3:initial_magmoms:R:1 pbc="T T T"
Si      -1.16616852       0.89209741      -1.80961228       0.00000000
Si       1.31248530      -1.90091009      -0.35827721       0.00000000
Si       0.58832964       1.91639795       1.37736617       0.00000000
Si      -1.67091417      -1.61314724       1.76701581       0.00000000
Si       1.18361511      -2.77332104       1.86689957       0.00000000
Si      -2.01852648       2.80908995      -0.83953845       0.00000000
Si       0.05792724      -2.93123630      -2.04209088       0.00000000
Si       1.47455451      -0.06732657       3.47739756       0.00000000
Si      -2.24802000      -2.61011153      -1.70063258       0.00000000
Si       0.11275938       0.71472375      -3.78439317       0.00000000
