10
Lattice="16.28999089631971 0.0 0.0 0.0 16.28999089631971 0.0 0.0 0.0 34.32429715621058" Properties=species:S:1:pos:R:3:initial_magmoms:R:1 pbc="T T T"
Si       1.35772263       1.35529542      -1.35728644       0.00000000
Si      -1.35718506      -1.35710361      -1.35783563       0.00000000
Si      -1.35778779       1.35778779       1.35694320       0.00000000
Si       1.35812988      -1.35783666       1.35701185       0.00000000
Si       0.00311139      -2.71394658      -2.71330288       0.00000000
Si       2.71438641       0.00136836      -2.71354315       0.00000000
Si       2.71547784      -0.00140094       2.71347450       0.00000000
Si       0.00039096      -2.71502172       2.71419531       0.00000000
Si      -2.71577106      -0.00053757       2.71361180       0.00000000
Si       2.71495656       2.71477737      -0.00030892       0.00000000
