10
Lattice="16.28999089631971 0.0 0.0 0.0 16.28999089631971 0.0 0.0 0.0 34.32429715621058" Properties=species:S:1:pos:R:3:initial_magmoms:R:1 pbc="T T T"
Si       1.35563751      -1.35778779      -1.36332752       0.00000000
Si      -1.36096434       1.35889551      -1.36212617       0.00000000
Si      -1.35408996      -1.36220238       1.37643941       0.00000000
Si       1.35835794       1.35161388       1.39219427       0.00000000
Si       2.71350675      -2.71355562      -0.00562919       0.00000000
Si      -2.71448415      -2.71467963      -0.00477108       0.00000000
Si       2.71329148       0.00058644      -2.71996180       0.00000000
Si      -0.00171045      -2.71422351      -2.71979018       0.00000000
Si       2.71562445       2.71868697      -0.00415324       0.00000000
Si      -0.00247608       2.71679733      -2.72006477       0.00000000
