10
Lattice="16.28999089631971 0.0 0.0 0.0 16.28999089631971 0.0 0.0 0.0 34.32429715621058" Properties=species:S:1:pos:R:3:initial_magmoms:R:1 pbc="T T T"
Si      -1.34436157       1.26796473      -1.49448073       0.00000000
Si      -1.82014034      -0.98466534       1.23629323       0.00000000
Si       0.92025468       1.85209155       1.30950699       0.00000000
Si       1.36487394      -1.43578431      -1.46297101       0.00000000
Si      -2.70176511       2.47453245       0.00864973       0.00000000
Si      -0.97871949       3.33198918       1.43860075       0.00000000
Si       0.00878031       2.63163321      -2.85870069       0.00000000
Si       2.76736149       2.74059702       0.02989648       0.00000000
Si      -2.78370755      -2.76175773      -0.11045565       0.00000000
Si      -2.70452186      -0.08229708      -2.85897528       0.00000000
