10
Lattice="16.28999089631971 0.0 0.0 0.0 16.28999089631971 0.0 0.0 0.0 34.32429715621058" Properties=species:S:1:pos:R:3:initial_magmoms:R:1 pbc="T T T"
Si       0.89913699       2.17875492      -0.04493053       0.00000000
Si      -0.55058571      -0.71105850      -2.18388463       0.00000000
Si      -1.61231904       0.13351284       1.72349257       0.00000000
Si       1.30301171      -1.89982125       0.57204906       0.00000000
Si      -0.02935458      -0.51240195       3.40517813       0.00000000
Si       2.69697959       1.88141355       1.45243345       0.00000000
Si       2.27594825       1.97273529      -1.99070737       0.00000000
Si       3.52584737      -1.46109897      -0.21051103       0.00000000
Si       0.56283467      -2.65443921       2.72095720       0.00000000
Si      -3.45603753      -1.22155452       1.20711756       0.00000000
