10
Lattice="16.28999089631971 0.0 0.0 0.0 16.28999089631971 0.0 0.0 0.0 34.32429715621058" Properties=species:S:1:pos:R:3:initial_magmoms:R:1 pbc="T T T"
Si       2.09205954      -0.18422361       1.07088435       0.00000000
Si      -1.77852591      -1.23007419       0.96997086       0.00000000
Si       0.73925649      -0.14646339      -2.25078272       0.00000000
Si      -0.40729887       2.33834805       0.23470968       0.00000000
Si       1.31859405       2.94304914      -1.18370837       0.00000000
Si      -1.43011539      -0.36818658       3.14753981       0.00000000
Si      -1.34332227       0.27740241      -3.25885357       0.00000000
Si      -3.59153775      -0.03484431       0.05560539       0.00000000
Si       1.57630185      -2.34502695      -2.48401645       0.00000000
Si       2.65614966       1.25670834      -2.36621540       0.00000000
