10
Lattice="16.28999089631971 0.0 0.0 0.0 16.28999089631971 0.0 0.0 0.0 34.32429715621058" Properties=species:S:1:pos:R:3:initial_magmoms:R:1 pbc="T T T"
Si       1.49397799      -1.17439497       1.36852765       0.00000000
Si       1.71543215       1.17977067      -1.09885969       0.00000000
Si      -1.23142626       1.54031724       1.32138664       0.00000000
Si      -0.70209900      -1.95344793      -1.26478721       0.00000000
Si       3.42849833      -0.60175260      -1.23837431       0.00000000
Si       0.14493213      -2.52954378       2.70624580       0.00000000
Si      -2.63979450      -2.62049085      -0.09623165       0.00000000
Si      -2.57087151       0.18779112       2.70267607       0.00000000
Si       2.72347201      -2.59719615       0.01511986       0.00000000
Si      -2.56301973       2.84871375      -0.26620567       0.00000000
