10
Lattice="16.28999089631971 0.0 0.0 0.0 16.28999089631971 0.0 0.0 0.0 34.32429715621058" Properties=species:S:1:pos:R:3:initial_magmoms:R:1 pbc="T T T"
Si       2.25398118       0.06460614      -0.55433771       0.00000000
Si      -1.18351737      -0.96791922      -1.76454445       0.00000000
Si      -0.77716332       2.22148359      -0.11625646       0.00000000
Si      -0.57549312      -0.92955627       2.13902275       0.00000000
Si      -2.90941029      -1.57262031      -0.34612641       0.00000000
Si      -2.87608095      -0.65137194       1.87826091       0.00000000
Si       0.47739474       3.25180980       1.56755720       0.00000000
Si       2.17765439       0.78558525      -2.82310637       0.00000000
Si       3.05985563      -2.11688550      -0.32663019       0.00000000
Si       0.88738146       0.06529032       3.63971618       0.00000000
