10
Lattice="16.28999089631971 0.0 0.0 0.0 16.28999089631971 0.0 0.0 0.0 34.32429715621058" Properties=species:S:1:pos:R:3:initial_magmoms:R:1 pbc="T T T"
Si       1.14806707       0.19124460       2.05492817       0.00000000
Si      -2.33143524      -0.42402870       0.15651888       0.00000000
Si       0.43806254      -1.92049326      -1.34132563       0.00000000
Si       0.38063377       2.33712630      -0.84533926       0.00000000
Si       3.09556915       1.00377351       0.95963924       0.00000000
Si      -2.01575133      -2.71761183       0.67615471       0.00000000
Si      -0.22857802      -0.96405849      -3.50259054       0.00000000
Si       3.61225537      -0.63016236      -0.70883146       0.00000000
Si       2.61227743      -2.70137070      -0.31540614       0.00000000
Si      -3.11304573       0.75810402       2.08077438       0.00000000
