10
Lattice="16.28999089631971 0.0 0.0 0.0 16.28999089631971 0.0 0.0 0.0 34.32429715621058" Properties=species:S:1:pos:R:3:initial_magmoms:R:1 pbc="T T T"
Si       1.33118622       1.36842627      -1.35726241       0.00000000
Si       1.35340578      -1.35280305       1.35457482       0.00000000
Si      -1.35912357       1.35799347       1.35327050       0.00000000
Si      -1.33675740      -1.36627488      -1.37682384       0.00000000
Si       2.71269225       0.06869493      -2.70643459       0.00000000
Si      -0.00197109      -2.71241532       2.71072856       0.00000000
Si       2.71275741       0.00247608       2.71093450       0.00000000
Si      -2.71689507      -2.71057455      -0.00810054       0.00000000
Si      -2.71678104       0.00219915       2.71090018       0.00000000
Si      -0.00143352       2.71718896       2.71072856       0.00000000
