10
Lattice="16.28999089631971 0.0 0.0 0.0 16.28999089631971 0.0 0.0 0.0 34.32429715621058" Properties=species:S:1:pos:R:3:initial_magmoms:R:1 pbc="T T T"
Si      -1.73485242       1.24359489       0.87115115       0.00000000
Si       0.12360852       1.40478444      -1.84730038       0.00000000
Si       2.21022720      -0.07737750       0.95476518       0.00000000
Si      -0.90598464      -2.09891763      -0.79179333       0.00000000
Si       2.65313601      -1.99723545      -0.29278642       0.00000000
Si       0.74525121      -3.27696156       0.43389368       0.00000000
Si      -2.15588376       1.33491663      -2.57198967       0.00000000
Si      -0.57146949       2.88549657       2.09893194       0.00000000
Si       1.56639753       0.50630949      -3.45570352       0.00000000
Si      -2.63900444       0.35541522       2.76094503       0.00000000
