10
Lattice="16.28999089631971 0.0 0.0 0.0 16.28999089631971 0.0 0.0 0.0 34.32429715621058" Properties=species:S:1:pos:R:3:initial_magmoms:R:1 pbc="T T T"
Si      -1.85883561      -0.75769677      -1.07383624       0.00000000
Si       1.87953273       0.80637129       1.05059867       0.00000000
Si      -2.21096025      -0.20157246       1.39957400       0.00000000
Si      -1.02600936       1.05489153      -2.47797537       0.00000000
Si      -0.17757729      -2.69808012      -1.15786216       0.00000000
Si      -0.14138091       2.97526166      -1.22177404       0.00000000
Si       1.36376622       3.06379781       0.78884144       0.00000000
Si       1.18076436       0.23726385       3.23252682       0.00000000
Si       1.62473202      -1.70087148      -2.52565184       0.00000000
Si      -1.10677518       0.79899192       3.48831162       0.00000000
