10
Lattice="16.28999089631971 0.0 0.0 0.0 16.28999089631971 0.0 0.0 0.0 34.32429715621058" Properties=species:S:1:pos:R:3:initial_magmoms:R:1 pbc="T T T"
Si       1.01941191      -0.24428484       2.07648384       0.00000000
Si      -0.12952179       2.31655203      -0.57115662       0.00000000
Si      -2.26882233      -0.41008446       0.77373874       0.00000000
Si       1.68617790      -1.45758033      -1.08018624       0.00000000
Si       0.22260285       1.76042772      -3.04456686       0.00000000
Si       0.23926752       1.77815124       3.14891278       0.00000000
Si       3.23760492       0.39679182       1.60002801       0.00000000
Si       1.90386117      -0.17995563      -3.12859279       0.00000000
Si       0.97466328       3.31711641       1.51758100       0.00000000
Si      -2.94598134       1.65744234       1.68700582       0.00000000
