10
Lattice="16.28999089631971 0.0 0.0 0.0 16.28999089631971 0.0 0.0 0.0 34.32429715621058" Properties=species:S:1:pos:R:3:initial_magmoms:R:1 pbc="T T T"
Si      -1.01941191       0.24428484      -2.07648384       0.00000000
Si       2.21819301       0.64107666      -0.47645584       0.00000000
Si       0.25920648      -2.08474533       1.15896054       0.00000000
Si      -0.78014439       2.02243608       1.07242894       0.00000000
Si       0.66676599      -1.21329549      -3.15667008       0.00000000
Si      -3.28823424      -0.16579962      -1.30274510       0.00000000
Si       3.15309307       0.27388377       1.61657233       0.00000000
Si      -0.04474863       3.56140125      -0.55890284       0.00000000
Si      -2.00305098      -2.34646047       1.88667037       0.00000000
Si       2.98006884      -0.93835287      -2.08036249       0.00000000
