10
Lattice="16.28999089631971 0.0 0.0 0.0 16.28999089631971 0.0 0.0 0.0 34.32429715621058" Properties=species:S:1:pos:R:3:initial_magmoms:R:1 pbc="T T T"
Si       2.22260501      -0.36955494      -0.54599690       0.00000000
Si      -1.34900748      -0.95102649      -1.65988961       0.00000000
Si      -0.40972608      -1.29689577       1.93692117       0.00000000
Si      -0.35489394       2.34906428       0.19461887       0.00000000
Si      -2.71567332      -0.97577100       2.27837947       0.00000000
Si      -1.63382184       2.52643795       2.16939977       0.00000000
Si       0.84483198      -0.26656956       3.62073483       0.00000000
Si      -1.98413829       2.83065533      -1.42281156       0.00000000
Si       2.54509163      -2.73279411      -0.76992874       0.00000000
Si       2.76556863       0.66031515      -2.55431265       0.00000000
