10
Lattice="16.28999089631971 0.0 0.0 0.0 16.28999089631971 0.0 0.0 0.0 34.32429715621058" Properties=species:S:1:pos:R:3:initial_magmoms:R:1 pbc="T T T"
Si       0.53885691      -2.31410853      -0.15301780       0.00000000
Si       0.12887019       0.87241095      -2.22517678       0.00000000
Si      -1.89438039      -0.34942050       1.44227345       0.00000000
Si      -2.85452928       1.16017380      -0.09988376       0.00000000
Si      -0.60365853       0.92660778       2.91205925       0.00000000
Si       0.29093940       2.70599447       1.61049799       0.00000000
Si      -1.18361511       2.77332104      -1.86689957       0.00000000
Si       2.46269681       0.96241320      -2.67369262       0.00000000
Si      -0.92401767      -3.30895512      -1.65371124       0.00000000
Si       2.85606773      -2.47137219      -0.63977093       0.00000000
