10
Lattice="16.28999089631971 0.0 0.0 0.0 16.28999089631971 0.0 0.0 0.0 34.32429715621058" Properties=species:S:1:pos:R:3:initial_magmoms:R:1 pbc="T T T"
Si       0.96014889      -1.50959430       1.54215721       0.00000000
Si      -1.79843229       0.94784994       1.37262941       0.00000000
Si      -1.19307960      -1.77248232      -1.33888861       0.00000000
Si       1.67091417       1.61314724      -1.76701581       0.00000000
Si       2.85452928      -1.16017380       0.09988376       0.00000000
Si      -0.57710583      -0.99696429      -3.46764838       0.00000000
Si       2.98339947      -0.28776285      -2.12529302       0.00000000
Si      -3.44437389       1.06339491      -0.72654280       0.00000000
Si      -3.46056615      -1.33191927      -0.59830716       0.00000000
Si       2.25087075      -0.23356602       3.01194301       0.00000000
