10
Lattice="16.28999089631971 0.0 0.0 0.0 16.28999089631971 0.0 0.0 0.0 34.32429715621058" Properties=species:S:1:pos:R:3:initial_magmoms:R:1 pbc="T T T"
Si       1.35740557      -1.35449721      -1.35646266       0.00000000
Si      -1.35896563      -1.35632169       1.35786995       0.00000000
Si       1.35666926       1.35900954       1.35783563       0.00000000
Si      -1.35611488       1.35711990      -1.36281266       0.00000000
Si      -0.01048992      -2.71458189      -2.69308243       0.00000000
Si       2.71264561      -2.71220355       0.00061784       0.00000000
Si       2.71388365       0.00122175       2.71505342       0.00000000
Si      -0.00079038      -2.71412577       2.71501910       0.00000000
Si       2.71391623       2.71637379      -0.00075513       0.00000000
Si      -2.71655794       0.00208512       2.71491613       0.00000000
