10
Lattice="16.28999089631971 0.0 0.0 0.0 16.28999089631971 0.0 0.0 0.0 34.32429715621058" Properties=species:S:1:pos:R:3:initial_magmoms:R:1 pbc="T T T"
Si       0.99092070       1.57037229      -1.41529454       0.00000000
Si      -1.16338293      -1.64190168      -1.22778080       0.00000000
Si       1.37495745      -0.61546878       1.91172712       0.00000000
Si      -1.48701636       0.74930742       1.78150067       0.00000000
Si      -2.06753494      -2.53008135       0.66201309       0.00000000
Si      -0.34989291      -2.39985909       2.29416866       0.00000000
Si       2.11063014       1.71626553       1.98600494       0.00000000
Si      -3.29043209      -0.56451366       1.09079245       0.00000000
Si       0.57146949      -2.88549657      -2.09893194       0.00000000
Si       3.05849637       1.98604422      -0.25925156       0.00000000
