10
Lattice="16.28999089631971 0.0 0.0 0.0 16.28999089631971 0.0 0.0 0.0 34.32429715621058" Properties=species:S:1:pos:R:3:initial_magmoms:R:1 pbc="T T T"
Si       1.35742933       1.35604476       1.35738941       0.00000000
Si      -1.35766311       1.35746199      -1.35725212       0.00000000
Si       1.35813469      -1.35733167      -1.35742374       0.00000000
Si      -1.35784230      -1.35795069       1.35742374       0.00000000
Si       0.00300801      -2.71236645       2.71556829       0.00000000
Si      -0.00051063       2.71344159      -2.71519072       0.00000000
Si      -2.71509252      -2.71425609      -0.00034324       0.00000000
Si       2.71526762       2.71464653      -0.00020595       0.00000000
Si      -0.00026628       2.71411901       2.71587721       0.00000000
Si      -2.71520655       2.71501837       0.00000000       0.00000000
