10
Lattice="16.28999089631971 0.0 0.0 0.0 16.28999089631971 0.0 0.0 0.0 34.32429715621058" Properties=species:S:1:pos:R:3:initial_magmoms:R:1 pbc="T T T"
Si       0.44519169      -2.07801756      -0.92284357       0.00000000
Si      -2.25650548       0.37409985       0.38443234       0.00000000
Si       1.30258163       1.08615204       1.58866666       0.00000000
Si       0.74631071       1.66118352      -1.58643558       0.00000000
Si       0.14086175       3.03154198       0.77627874       0.00000000
Si      -0.46511047       0.64777185      -3.35410354       0.00000000
Si      -0.48970837      -1.71082467      -3.01587173       0.00000000
Si      -2.21046994       2.70425144       0.77631306       0.00000000
Si       2.75282332      -2.09028393      -1.10174191       0.00000000
Si       3.48134470       0.90243342       0.74260658       0.00000000
