10
Lattice="10.86 0.0 0.0 0.0 10.86 0.0 0.0 0.0 10.86" Properties=species:S:1:pos:R:3:initial_magmoms:R:1 pbc="T T T"
Si      -0.87399108      -2.00005362      -0.73980492       0.00000000
Si      -0.97930050       0.69432324       2.05618896       0.00000000
Si       0.75395550       1.66845438      -1.95958926       0.00000000
Si       1.63672146      -1.84971864       1.87326312       0.00000000
Si      -2.41076796       2.09929230       0.57518904       0.00000000
Si      -2.41076796      -0.61570770      -2.13981096       0.00000000
Si      -0.90711408       3.42687300      -0.81297960       0.00000000
Si      -1.05335484       1.11321516      -3.36936930       0.00000000
Si       0.30423204       2.09929230       3.29018904       0.00000000
Si      -3.76826796       0.74179230      -0.78231096       0.00000000
