10
Lattice="10.86 0.0 0.0 0.0 10.86 0.0 0.0 0.0 10.86" Properties=species:S:1:pos:R:3:initial_magmoms:R:1 pbc="T T T"
Si      -1.34510874       1.42212786      -1.22188032       0.00000000
Si      -1.34510874      -1.29287214       1.49311968       0.00000000
Si       1.36989126       1.42212786       1.49311968       0.00000000
Si       2.61743376       0.23046006      -2.48533272       0.00000000
Si      -2.55645486       0.03470856      -2.61004896       0.00000000
Si       2.56107036      -2.71277370      -0.03802086       0.00000000
Si      -2.62864128      -2.69784120       0.25911960       0.00000000
Si       0.01239126       2.77962786      -2.57938032       0.00000000
Si      -2.70260874       2.77962786       0.13561968       0.00000000
Si       0.01239126      -2.65037214       2.85061968       0.00000000
