10
Lattice="16.28999089631971 0.0 0.0 0.0 16.28999089631971 0.0 0.0 0.0 34.474598006748145" Properties=species:S:1:pos:R:3:initial_magmoms:R:1 pbc="T T T"
Si       1.35375100       1.36345671       1.37148646       0.00000000
Si      -1.36029888      -1.35324125       1.37838139       0.00000000
Si      -1.40856615       1.38008880      -1.32383565       0.00000000
Si       1.49043550      -1.26342145      -1.41745836       0.00000000
Si      -2.70228537      -2.70592280       0.02179141       0.00000000
Si       2.67910703       0.33531336      -2.70880655       0.00000000
Si       2.73400433      -2.70646475      -0.00315098       0.00000000
Si      -0.00374970      -2.70924201       2.73413018       0.00000000
Si       2.70494297       2.74256811      -0.00179958       0.00000000
Si       2.71406537       0.00384444       2.73423361       0.00000000
