10
Lattice="16.28999089631971 0.0 0.0 0.0 16.28999089631971 0.0 0.0 0.0 34.474598006748145" Properties=species:S:1:pos:R:3:initial_magmoms:R:1 pbc="T T T"
Si      -1.17880956       1.40823629       1.49146847       0.00000000
Si       1.03469193       1.81731077      -1.28204004       0.00000000
Si       1.54481328      -1.27339940       1.46526432       0.00000000
Si      -0.83883726      -1.92439539      -1.56528349       0.00000000
Si      -2.54278755      -2.74997259      -0.01934371       0.00000000
Si      -2.42175285       2.87515079       0.16992884       0.00000000
Si      -2.52009558       0.06079591       2.85361921       0.00000000
Si       2.94443379      -2.50497099      -0.02823816       0.00000000
Si       0.19292247      -2.65342176       2.84444896       0.00000000
Si       1.16317116      -3.55829868      -1.25080604       0.00000000
