10
Lattice="16.28999089631971 0.0 0.0 0.0 16.28999089631971 0.0 0.0 0.0 34.474598006748145" Properties=species:S:1:pos:R:3:initial_magmoms:R:1 pbc="T T T"
Si      -1.35584928       1.35312751      -1.35385269       0.00000000
Si       1.35760860       1.35473860       1.35750700       0.00000000
Si      -1.35723393      -1.36045484       1.35778280       0.00000000
Si       1.35716877      -1.36109015      -1.36302294       0.00000000
Si      -0.01456326       2.70056790      -2.71600343       0.00000000
Si      -2.71368594       2.71060254       0.00041370       0.00000000
Si      -0.00061902       2.71278540       2.71532428       0.00000000
Si       2.71705797       2.71306233       0.00127556       0.00000000
Si       2.71573848      -0.00217080       2.71463479       0.00000000
Si      -2.71541268      -0.00224581       2.71542770       0.00000000
