10
Lattice="16.28999089631971 0.0 0.0 0.0 16.28999089631971 0.0 0.0 0.0 34.474598006748145" Properties=species:S:1:pos:R:3:initial_magmoms:R:1 pbc="T T T"
Si       1.36409202       1.35176863      -1.38188056       0.00000000
Si      -1.35783666      -1.36058871      -1.38019130       0.00000000
Si       1.23435846      -1.37865432       1.53953298       0.00000000
Si      -1.30326516       1.56694324       1.35416297       0.00000000
Si       2.71052568       2.69779504       0.00210295       0.00000000
Si      -2.71161711      -2.70729930      -0.00623991       0.00000000
Si       2.72209158      -2.70777171       0.00379221       0.00000000
Si       0.00335574       2.71028947      -2.74104234       0.00000000
Si      -2.71200807      -0.00473550      -2.74183526       0.00000000
Si       0.00420282      -2.71805070      -2.73966336       0.00000000
