10
Lattice="16.28999089631971 0.0 0.0 0.0 16.28999089631971 0.0 0.0 0.0 34.474598006748145" Properties=species:S:1:pos:R:3:initial_magmoms:R:1 pbc="T T T"
Si       1.66151484       0.09878256      -1.58662531       0.00000000
Si      -0.15161103       1.84694391       1.43000712       0.00000000
Si      -1.64511081      -1.46411425      -0.91702482       0.00000000
Si       2.29759047      -0.36983187       0.94022624       0.00000000
Si       2.10724182       1.65423321       2.11070844       0.00000000
Si      -1.79178597      -0.27036513      -2.98457104       0.00000000
Si       1.90449648      -2.48016553       2.07275189       0.00000000
Si      -0.22165803       3.76000893       0.02809681       0.00000000
Si       0.52479864      -0.68041701      -3.70695217       0.00000000
Si       1.98467586      -2.15025068      -2.51375119       0.00000000
