10
Lattice="16.28999089631971 0.0 0.0 0.0 16.28999089631971 0.0 0.0 0.0 34.474598006748145" Properties=species:S:1:pos:R:3:initial_magmoms:R:1 pbc="T T T"
Si      -1.99138734      -0.17644676       1.28200759       0.00000000
Si       1.64511081       1.46411425       0.91702482       0.00000000
Si      -0.14667516       1.19374912      -2.06754622       0.00000000
Si       0.44979948      -2.35149964      -0.25993861       0.00000000
Si      -1.00095534      -0.86518145       3.30101355       0.00000000
Si       2.16990945       0.78369724      -2.78992735       0.00000000
Si       3.30662565       1.56289681      -0.66960049       0.00000000
Si      -1.96662654       0.04231490      -3.28798215       0.00000000
Si       1.22813568      -1.74865561       3.23223669       0.00000000
Si       0.43282530      -3.43801006       1.84197880       0.00000000
