10
Lattice="16.28999089631971 0.0 0.0 0.0 16.28999089631971 0.0 0.0 0.0 34.474598006748145" Properties=species:S:1:pos:R:3:initial_magmoms:R:1 pbc="T T T"
Si      -0.46130022       0.54551138      -2.25084776       0.00000000
Si       0.62537310      -2.28397107      -0.48871217       0.00000000
Si      -1.97045469      -0.35187866       1.41804443       0.00000000
Si       1.81995138       1.15143421       1.22043593       0.00000000
Si      -2.31044328       2.14414682      -2.03210632       0.00000000
Si       1.96662654      -0.04231490       3.28798215       0.00000000
Si       0.99658962      -3.39538890       1.47940925       0.00000000
Si      -3.85178842       0.78319876       0.52160096       0.00000000
Si      -1.32245478      -1.42364761      -3.47841993       0.00000000
Si       1.42179120       1.38050419      -3.55891816       0.00000000
