10
Lattice="16.28999089631971 0.0 0.0 0.0 16.28999089631971 0.0 0.0 0.0 34.474598006748145" Properties=species:S:1:pos:R:3:initial_magmoms:R:1 pbc="T T T"
Si      -0.94859928      -1.75487283      -1.31334502       0.00000000
Si       0.84530439       1.88952597      -1.22771007       0.00000000
Si      -2.40549543       0.26948547       0.71490014       0.00000000
Si       2.69166186      -0.19834704       0.77885055       0.00000000
Si       1.78224003       0.62221284       2.82843550       0.00000000
Si       0.57194190      -2.16972700      -3.01487423       0.00000000
Si      -0.69199920      -3.74209712       0.10252751       0.00000000
Si       0.06180426       1.70043165      -3.44339372       0.00000000
Si       3.21619986       1.65977181      -1.30227867       0.00000000
Si       0.03898197       2.57777847       2.92879667       0.00000000
