10
Lattice="16.28999089631971 0.0 0.0 0.0 16.28999089631971 0.0 0.0 0.0 34.474598006748145" Properties=species:S:1:pos:R:3:initial_magmoms:R:1 pbc="T T T"
Si       1.42649901      -1.16657577       1.39160240       0.00000000
Si       1.37197638       1.33490034      -1.34595801       0.00000000
Si      -1.34012943      -1.38025170      -1.34423428       0.00000000
Si      -1.30947165       1.34925183       1.47061822       0.00000000
Si      -0.45659241      -2.00156859       2.69967280       0.00000000
Si       2.28027420       0.72549144       2.82057529       0.00000000
Si      -2.30573547      -0.40293315       2.91841425       0.00000000
Si       0.46491660       2.47705740       2.76558827       0.00000000
Si      -2.70327337       2.68962561       0.03871500       0.00000000
Si       0.02042766       2.69202024      -2.70367186       0.00000000
