10
Lattice="16.28999089631971 0.0 0.0 0.0 16.28999089631971 0.0 0.0 0.0 34.474598006748145" Properties=species:S:1:pos:R:3:initial_magmoms:R:1 pbc="T T T"
Si       1.35536058       1.32434442      -1.36540169       0.00000000
Si       1.39471722      -1.29044493       1.37581303       0.00000000
Si      -1.36018242      -1.38862476      -1.36650488       0.00000000
Si      -1.22002326       1.45603278       1.50698894       0.00000000
Si      -0.45188460      -1.99803366       2.80002841       0.00000000
Si      -2.26724220      -0.24646770       2.74504140       0.00000000
Si      -2.70326034       2.67802713       0.01658229       0.00000000
Si       0.00226431       2.68312590      -2.72446005       0.00000000
Si       2.70407484       2.70857088       0.01651334       0.00000000
Si      -2.71173114      -0.03150486      -2.72421873       0.00000000
