10
Lattice="16.28999089631971 0.0 0.0 0.0 16.28999089631971 0.0 0.0 0.0 34.474598006748145" Properties=species:S:1:pos:R:3:initial_magmoms:R:1 pbc="T T T"
Si      -1.04721894      -1.70250048       1.23805246       0.00000000
Si       1.29673287       1.37010303       1.42690441       0.00000000
Si       1.22002326      -1.45603278      -1.50698894       0.00000000
Si      -1.48323708       1.22199435      -1.49040665       0.00000000
Si      -0.53724420       2.58310530       2.50585651       0.00000000
Si      -1.45357299      -0.42495723       3.35700033       0.00000000
Si       0.76813866      -3.45406644       1.29303947       0.00000000
Si       2.61474048      -2.74647771      -0.13117592       0.00000000
Si       2.57538384      -0.13168836      -2.87239064       0.00000000
Si      -2.82670596       2.62969470      -0.16192728       0.00000000
