10
Lattice="16.28999089631971 0.0 0.0 0.0 16.28999089631971 0.0 0.0 0.0 34.474598006748145" Properties=species:S:1:pos:R:3:initial_magmoms:R:1 pbc="T T T"
Si       0.37914975       2.03326893       1.11159956       0.00000000
Si      -1.87268211      -0.02564046      -1.54208411       0.00000000
Si       1.48719555       0.36652500      -1.89341493       0.00000000
Si      -0.80389521      -1.92756312       1.35719673       0.00000000
Si       2.45428398      -0.38063214       0.94046756       0.00000000
Si       1.86926121      -1.88253756      -2.58149382       0.00000000
Si       2.10432591       3.06820521      -0.12807320       0.00000000
Si      -3.73265802      -0.20830023      -0.18847273       0.00000000
Si      -1.62315189      -2.07459666      -2.71801330       0.00000000
Si       0.44616681       2.12160960      -3.17104425       0.00000000
