10
Lattice="16.28999089631971 0.0 0.0 0.0 16.28999089631971 0.0 0.0 0.0 34.474598006748145" Properties=species:S:1:pos:R:3:initial_magmoms:R:1 pbc="T T T"
Si      -1.00978452       1.83169647       0.97721750       0.00000000
Si      -0.30002922       0.65449962      -2.19506783       0.00000000
Si      -1.06111431      -1.72781514       1.14293699       0.00000000
Si       2.27421432      -0.52004196       0.42600285       0.00000000
Si       0.96361866       2.69845479      -1.95733087       0.00000000
Si       0.08493606      -1.39502673       3.25209407       0.00000000
Si      -0.00594585      -3.58172465       0.14275939       0.00000000
Si       2.28037194      -0.36833319       2.78465274       0.00000000
Si      -0.10968057      -1.36956546      -3.36555004       0.00000000
Si       2.19761874      -2.91678151       0.69473249       0.00000000
