10
Lattice="16.28999089631971 0.0 0.0 0.0 16.28999089631971 0.0 0.0 0.0 34.474598006748145" Properties=species:S:1:pos:R:3:initial_magmoms:R:1 pbc="T T T"
Si      -1.05516846       1.85390951       1.00017760       0.00000000
Si       2.20356459       0.66494314       0.55197310       0.00000000
Si      -0.93823884      -1.77560741       1.31851621       0.00000000
Si      -0.49682871       0.10182553      -2.37578377       0.00000000
Si      -2.75913504      -1.97243948      -0.19429894       0.00000000
Si       0.00594585       3.58172465      -0.14275939       0.00000000
Si      -2.81830032      -0.63077879      -2.13332379       0.00000000
Si       2.28244077      -0.36908041       2.74948863       0.00000000
Si       0.76532049      -3.50513300      -0.93819223       0.00000000
Si       3.60942417      -0.20313793      -1.10487701       0.00000000
