10
Lattice="16.28999089631971 0.0 0.0 0.0 16.28999089631971 0.0 0.0 0.0 34.474598006748145" Properties=species:S:1:pos:R:3:initial_magmoms:R:1 pbc="T T T"
Si      -0.17151741       1.39805667      -1.90568789       0.00000000
Si      -1.37738466       1.03410549       1.65960808       0.00000000
Si       2.22625656      -0.22419927       0.87617240       0.00000000
Si      -1.26364788      -2.04395517      -0.23773696       0.00000000
Si      -0.96361866      -2.69845479       1.95733087       0.00000000
Si      -1.97340318      -0.86675832       2.93454837       0.00000000
Si      -0.20660607       2.91693627       2.45407563       0.00000000
Si      -1.55898558       0.40602825      -3.49317507       0.00000000
Si       3.18643803       2.19307383       0.50681135       0.00000000
Si       2.39065524       0.12261483       3.20441568       0.00000000
