10
Lattice="16.28999089631971 0.0 0.0 0.0 16.28999089631971 0.0 0.0 0.0 34.474598006748145" Properties=species:S:1:pos:R:3:initial_magmoms:R:1 pbc="T T T"
Si      -0.75984705       0.28515645       2.16042084       0.00000000
Si      -0.59924394       2.28780018      -0.55586873       0.00000000
Si      -1.86350107      -1.54086133      -0.46878585       0.00000000
Si       2.40549543      -0.26948547      -0.71490014       0.00000000
Si       1.45689615      -2.02435830      -2.02824516       0.00000000
Si      -0.84590712      -1.77173624      -2.59193963       0.00000000
Si      -2.83812036       1.88229321       0.40338750       0.00000000
Si       1.14474717       3.53655900       0.64043497       0.00000000
Si       0.73129068       1.41056739       3.56550424       0.00000000
Si       2.44447740       2.30829300       2.21389653       0.00000000
