10
Lattice="16.28999089631971 0.0 0.0 0.0 16.28999089631971 0.0 0.0 0.0 34.474598006748145" Properties=species:S:1:pos:R:3:initial_magmoms:R:1 pbc="T T T"
Si       1.28928834       1.49771889      -1.33743385       0.00000000
Si       1.31874066      -1.39561317       1.43176533       0.00000000
Si      -1.53394785      -1.08797652      -1.48512311       0.00000000
Si      -1.40317173       1.32481683       1.44790979       0.00000000
Si      -2.67002874      -2.61417033       0.05925152       0.00000000
Si      -2.37456072       1.09112049      -2.75909812       0.00000000
Si       2.66299146      -0.02710656       2.82363319       0.00000000
Si      -2.80373706       2.69993718       0.05986517       0.00000000
Si       2.57580738      -2.91558420      -0.18900364       0.00000000
Si      -0.05395248       2.68972335       2.82511559       0.00000000
