10
Lattice="16.28999089631971 0.0 0.0 0.0 16.28999089631971 0.0 0.0 0.0 34.474598006748145" Properties=species:S:1:pos:R:3:initial_magmoms:R:1 pbc="T T T"
Si      -0.38206566       2.24906256       0.68807889       0.00000000
Si      -1.71193239      -0.47825811      -1.64075046       0.00000000
Si      -0.12810456      -1.75632264       1.67994810       0.00000000
Si       2.44789830      -0.09425394      -0.47178514       0.00000000
Si      -0.91264725      -2.80412802      -1.53525813       0.00000000
Si      -3.49241310      -0.19205910      -0.13651948       0.00000000
Si       3.01408983      -0.15711705       1.83208459       0.00000000
Si       1.25936361      -0.76429422       3.26743528       0.00000000
Si      -1.86926121       1.88253756       2.58149382       0.00000000
Si       0.55157940      -3.65334201       0.33723071       0.00000000
