10
Lattice="16.28999089631971 0.0 0.0 0.0 16.28999089631971 0.0 0.0 0.0 34.474598006748145" Properties=species:S:1:pos:R:3:initial_magmoms:R:1 pbc="T T T"
Si      -0.22128336       2.23976097       0.68931997       0.00000000
Si       2.16130833      -0.08312787      -0.93839908       0.00000000
Si      -0.86289759      -0.60066117      -2.12373985       0.00000000
Si      -0.22364541      -1.34798121       1.98149758       0.00000000
Si      -2.56137444       1.98138528       0.35729493       0.00000000
Si       1.97469009      -1.86678513       2.52571389       0.00000000
Si      -1.39442400      -3.23081199       1.18703002       0.00000000
Si      -0.18855675      -2.86686081      -2.37826595       0.00000000
Si      -0.35448669       2.19774906       3.01432264       0.00000000
Si       3.18360357       2.00285550      -0.35557120       0.00000000
