10
Lattice="16.28999089631971 0.0 0.0 0.0 16.28999089631971 0.0 0.0 0.0 34.474598006748145" Properties=species:S:1:pos:R:3:initial_magmoms:R:1 pbc="T T T"
Si       0.53124948       0.24158070      -2.28883879       0.00000000
Si       0.24081507       2.30769027       0.59310132       0.00000000
Si       1.44788778      -1.07970120       1.65812567       0.00000000
Si      -2.37708567      -0.75582342      -0.19853932       0.00000000
Si      -2.64613131      -0.96845679       2.13470278       0.00000000
Si       2.78708868       2.36250612       0.09866635       0.00000000
Si       3.20326560       0.49599792       1.99756275       0.00000000
Si       2.30832558       2.09419353      -2.24781400       0.00000000
Si      -1.32763500       1.14083757      -3.56536492       0.00000000
Si       2.20468860      -3.25210302       1.16331149       0.00000000
