10
Lattice="16.28999089631971 0.0 0.0 0.0 16.28999089631971 0.0 0.0 0.0 34.474598006748145" Properties=species:S:1:pos:R:3:initial_magmoms:R:1 pbc="T T T"
Si      -1.34198649      -1.35268155      -1.35658998       0.00000000
Si       1.35654918      -1.35600076       1.35574880       0.00000000
Si      -1.35689184       1.35832373       1.35657619       0.00000000
Si       1.36029888       1.35324125      -1.37838139       0.00000000
Si       0.09282042      -2.65936761      -2.66332966       0.00000000
Si      -2.65983120      -0.02213322      -2.75817623       0.00000000
Si       0.00089595      -2.71415088       2.71301448       0.00000000
Si      -2.71450044       0.00143678       2.71322133       0.00000000
Si       2.71575381       0.00118917       2.71329028       0.00000000
Si       0.00068418       2.71648619       2.71322133       0.00000000
