10
Lattice="16.28999089631971 0.0 0.0 0.0 16.28999089631971 0.0 0.0 0.0 34.474598006748145" Properties=species:S:1:pos:R:3:initial_magmoms:R:1 pbc="T T T"
Si       1.12008967      -1.88594217      -0.86520947       0.00000000
Si       0.97436910       2.14653330      -0.27662433       0.00000000
Si       0.21294288      -0.23529276       2.35916701       0.00000000
Si      -1.90104300       0.21701538      -1.44110795       0.00000000
Si      -0.12722490       0.78793101      -3.11350611       0.00000000
Si      -0.24513192       3.09591450       1.52836321       0.00000000
Si       1.02555228      -1.27519749      -3.16311508       0.00000000
Si       2.42884619      -1.13992533       2.35775355       0.00000000
Si      -3.69742275      -0.43738650       0.25914570       0.00000000
Si       3.18287771      -2.07146898       0.33947156       0.00000000
