10
Lattice="16.28999089631971 0.0 0.0 0.0 16.28999089631971 0.0 0.0 0.0 34.474598006748145" Properties=species:S:1:pos:R:3:initial_magmoms:R:1 pbc="T T T"
Si      -1.25696898       1.37225331      -1.43362696       0.00000000
Si       1.10677748       1.84197546       1.12528598       0.00000000
Si       1.45588032      -1.35451350      -1.40411669       0.00000000
Si      -2.00137311      -0.66920949       1.34478587       0.00000000
Si      -2.43893880       2.85276996      -0.01975396       0.00000000
Si      -2.61045621       0.00503361      -2.79027210       0.00000000
Si      -2.77944867      -2.66818797       0.03805998       0.00000000
Si       0.10546146      -2.71122615      -2.78175687       0.00000000
Si       0.10300814       2.72039742      -2.78844494       0.00000000
Si      -0.54478647       3.65410764       1.28521373       0.00000000
