10
Lattice="16.28999089631971 0.0 0.0 0.0 16.28999089631971 0.0 0.0 0.0 34.474598006748145" Properties=species:S:1:pos:R:3:initial_magmoms:R:1 pbc="T T T"
Si       0.92087370      -0.44116578       2.09729782       0.00000000
Si      -1.67283639      -1.41431409      -0.82587393       0.00000000
Si      -0.38152809       2.35356291      -0.01227296       0.00000000
Si       1.80434786      -0.52206192      -1.51543523       0.00000000
Si      -0.29672235      -3.30437763      -1.28914384       0.00000000
Si       2.04450970       1.49273415      -2.64468579       0.00000000
Si       0.37076040       3.01483917      -2.09198873       0.00000000
Si       2.19402258       1.56313953       2.60579842       0.00000000
Si       0.75311928       3.25365057       1.81746735       0.00000000
Si      -0.86426595       1.54305396      -3.40126574       0.00000000
