10
Lattice="16.28999089631971 0.0 0.0 0.0 16.28999089631971 0.0 0.0 0.0 34.474598006748145" Properties=species:S:1:pos:R:3:initial_magmoms:R:1 pbc="T T T"
Si      -1.37065689      -1.34084619       1.35526615       0.00000000
Si      -1.35430173       1.35738054      -1.35564538       0.00000000
Si       1.35716877      -1.35557235      -1.35685199       0.00000000
Si       1.35348723       1.36721970       1.35664514       0.00000000
Si       2.61045621      -0.00503361       2.79027210       0.00000000
Si      -2.65838139       0.11823282       2.76162369       0.00000000
Si       0.00032580      -2.71448415      -2.71301448       0.00000000
Si      -2.71362078      -2.71410948       0.00244770       0.00000000
Si      -2.71469592      -0.00034209      -2.71332475       0.00000000
Si       2.71538181       0.00014661      -2.71325580       0.00000000
