10
Lattice="16.28999089631971 0.0 0.0 0.0 16.28999089631971 0.0 0.0 0.0 34.474598006748145" Properties=species:S:1:pos:R:3:initial_magmoms:R:1 pbc="T T T"
Si       0.10538001      -2.24692857       0.68021867       0.00000000
Si       2.33877552       0.46838637       0.19033436       0.00000000
Si      -2.22845571       0.17309754      -0.87524158       0.00000000
Si      -0.21395286       1.08007587       2.14904422       0.00000000
Si       0.37341567       1.41558471      -2.91710422       0.00000000
Si      -3.20828292      -1.64165733       0.21391500       0.00000000
Si       1.33011338      -0.13173723       3.45152973       0.00000000
Si       2.02497962      -0.39654747      -3.07703196       0.00000000
Si       0.45616887       3.34107900       1.67553535       0.00000000
Si       3.11318909      -0.66173238       2.03865649       0.00000000
