10
Lattice="16.28999089631971 0.0 0.0 0.0 16.28999089631971 0.0 0.0 0.0 34.474598006748145" Properties=species:S:1:pos:R:3:initial_magmoms:R:1 pbc="T T T"
Si      -2.11937787      -0.49813191       0.89520239       0.00000000
Si       1.54406624      -1.21181310       1.30248552       0.00000000
Si       0.67012173       2.26100313      -0.47350887       0.00000000
Si       0.21395286      -1.08007587      -2.14904422       0.00000000
Si       2.55272838      -0.61168950      -1.95870985       0.00000000
Si       2.53803969       0.49001949       2.50361566       0.00000000
Si       2.74650282       1.75932000      -1.57638635       0.00000000
Si       0.31933287      -3.32700444      -1.46882554       0.00000000
Si      -2.42813853      -2.78459631       0.36874051       0.00000000
Si      -1.01592585       2.84112261      -2.19003454       0.00000000
