10
Lattice="16.28999089631971 0.0 0.0 0.0 16.28999089631971 0.0 0.0 0.0 34.474598006748145" Properties=species:S:1:pos:R:3:initial_magmoms:R:1 pbc="T T T"
Si      -2.16130833       0.08312787       0.93839908       0.00000000
Si      -0.28637820       0.10990863      -2.34875567       0.00000000
Si       1.02229524       2.08598337       0.58282788       0.00000000
Si       1.00809036      -1.98871578       0.97263238       0.00000000
Si      -3.02420592      -0.51753330      -1.18534077       0.00000000
Si       2.63181240      -0.74951919       2.27594528       0.00000000
Si       2.53469142      -2.48015250      -0.80332753       0.00000000
Si      -0.59513886      -2.17655577      -2.87521756       0.00000000
Si       2.03884011       1.52541189       2.68284919       0.00000000
Si      -2.38259169       2.32288884       1.62771905       0.00000000
