10
Lattice="16.28999089631971 0.0 0.0 0.0 16.28999089631971 0.0 0.0 0.0 34.474598006748145" Properties=species:S:1:pos:R:3:initial_magmoms:R:1 pbc="T T T"
Si      -0.47309418       0.73344096      -2.20799581       0.00000000
Si      -1.66074921      -1.74234582       0.29830886       0.00000000
Si      -1.45500651       1.56118473       1.30469189       0.00000000
Si       2.56760441      -0.31376169       0.41438490       0.00000000
Si       0.24423597       1.29103137       2.83271035       0.00000000
Si      -0.02104668       3.03722163      -1.91399628       0.00000000
Si      -2.75599107       0.21781359      -2.57059984       0.00000000
Si      -1.37101527       3.55319109      -0.00361983       0.00000000
Si      -0.61155918      -3.75484500      -0.40742103       0.00000000
Si      -1.78740396      -2.02491216       2.70994624       0.00000000
