10
Lattice="16.28999089631971 0.0 0.0 0.0 16.28999089631971 0.0 0.0 0.0 34.474598006748145" Properties=species:S:1:pos:R:3:initial_magmoms:R:1 pbc="T T T"
Si      -1.35790182      -1.35695700      -1.35947206       0.00000000
Si       1.35755973       1.35787568      -1.35929968       0.00000000
Si       1.36296801      -1.36308204       1.35140500       0.00000000
Si      -1.36612827       1.36542780       1.35502483       0.00000000
Si      -2.71396287      -2.71287144      -0.00230980       0.00000000
Si       2.71407690      -2.71422351      -0.00372326       0.00000000
Si       2.71476108       2.71376806      -0.00227532       0.00000000
Si      -2.71396287       2.71508592      -0.00427485       0.00000000
Si      -0.00011403      -2.71459818      -2.71684116       0.00000000
Si       2.71498914       0.00004887      -2.71694459       0.00000000
