10
Lattice="16.28999089631971 0.0 0.0 0.0 16.28999089631971 0.0 0.0 0.0 34.474598006748145" Properties=species:S:1:pos:R:3:initial_magmoms:R:1 pbc="T T T"
Si       1.34892603       1.33809318      -1.38301822       0.00000000
Si      -1.37671677      -1.37179719      -1.37250346       0.00000000
Si      -0.86687235       1.81429875       1.28476556       0.00000000
Si       1.51428582      -1.23823548       1.39008552       0.00000000
Si       2.69421939       2.69371440      -0.00017237       0.00000000
Si       2.69625564      -2.71875213      -0.02378749       0.00000000
Si      -0.01404198       2.70117522      -2.73442322       0.00000000
Si       2.70003492      -0.01304829      -2.73814648       0.00000000
Si      -2.72575683       2.71355562       0.00823943       0.00000000
Si      -2.74137894      -2.70304857       0.00406800       0.00000000
