10
Lattice="16.28999089631971 0.0 0.0 0.0 16.28999089631971 0.0 0.0 0.0 34.474598006748145" Properties=species:S:1:pos:R:3:initial_magmoms:R:1 pbc="T T T"
Si       2.07638109      -0.50168313      -1.10287748       0.00000000
Si      -0.67012173      -2.26100313       0.47350887       0.00000000
Si       0.65080784       1.68076962       1.67257053       0.00000000
Si      -1.68604758       0.58011948      -1.71652567       0.00000000
Si       0.53372556       0.09327654       3.39457766       0.00000000
Si       1.88260665      -2.87269263      -1.48520099       0.00000000
Si       3.70529801       0.38429739       0.36853366       0.00000000
Si      -0.45616887      -3.34107900      -1.67553535       0.00000000
Si      -2.43147798       2.68968281      -1.05637122       0.00000000
Si       1.86791796      -1.77098364       2.97712452       0.00000000
