10
Lattice="16.28999089631971 0.0 0.0 0.0 16.28999089631971 0.0 0.0 0.0 34.474598006748145" Properties=species:S:1:pos:R:3:initial_magmoms:R:1 pbc="T T T"
Si      -0.49816449       1.16377389       1.97391316       0.00000000
Si       0.59297229      -2.27493108      -0.40690391       0.00000000
Si      -1.01654487       0.56057148      -2.10002131       0.00000000
Si       2.38460418       0.33739848       0.04116269       0.00000000
Si       2.67409214      -1.50390909      -1.39756651       0.00000000
Si       2.20903381       2.34518985      -1.22905458       0.00000000
Si       0.99800685       1.43690832      -3.00573846       0.00000000
Si      -2.03884011      -1.52541189      -2.68284919       0.00000000
Si       0.61108677       0.07183890       3.74942490       0.00000000
Si       1.28794671      -3.19244904       1.63354526       0.00000000
