10
Lattice="16.28999089631971 0.0 0.0 0.0 16.28999089631971 0.0 0.0 0.0 34.474598006748145" Properties=species:S:1:pos:R:3:initial_magmoms:R:1 pbc="T T T"
Si      -1.35649599       1.35969372      -1.36247135       0.00000000
Si       1.35951453      -1.35788553      -1.36309189       0.00000000
Si       1.36798533       1.35164646       1.37770913       0.00000000
Si      -1.36418650      -1.36028016       1.37929496       0.00000000
Si       2.71106325      -2.71500543      -0.00537804       0.00000000
Si       2.71634121       2.71225242      -0.00393011       0.00000000
Si      -2.71460537      -2.71699281       0.00165478       0.00000000
Si      -2.71705869       2.71463076      -0.00503329       0.00000000
Si       0.00030951       2.71437012      -2.72021968       0.00000000
Si       2.71480995      -0.00057015      -2.72004730       0.00000000
