10
Lattice="16.28999089631971 0.0 0.0 0.0 16.28999089631971 0.0 0.0 0.0 34.474598006748145" Properties=species:S:1:pos:R:3:initial_magmoms:R:1 pbc="T T T"
Si      -1.35997712      -1.34814411       1.35481798       0.00000000
Si       1.36056269      -1.35493704      -1.35743806       0.00000000
Si      -1.35619784       1.35755973      -1.35954101       0.00000000
Si       1.36975840       1.36576989       1.35257713       0.00000000
Si      -2.54194694       0.13237254       2.76869099       0.00000000
Si      -2.70730673       2.70870120      -0.00441275       0.00000000
Si      -2.71181906      -0.00039096      -2.71591035       0.00000000
Si       2.71404504       2.71381626      -0.00075844       0.00000000
Si      -2.71346435      -2.71536381      -0.00182715       0.00000000
Si       0.00181221       2.71407690      -2.71560008       0.00000000
