10
Lattice="16.28999089631971 0.0 0.0 0.0 16.28999089631971 0.0 0.0 0.0 34.474598006748145" Properties=species:S:1:pos:R:3:initial_magmoms:R:1 pbc="T T T"
Si      -0.45590823      -2.29674339      -0.30292846       0.00000000
Si      -0.57581892       1.12208778      -2.00852568       0.00000000
Si       2.39526531       0.13478346       0.34036790       0.00000000
Si      -0.99862587       0.73550979       2.10550278       0.00000000
Si       2.56761351       2.30529564       1.17127512       0.00000000
Si       0.67738707      -0.17967870      -3.61835241       0.00000000
Si       0.54740916       2.73279411       2.44993868       0.00000000
Si      -0.32521356      -3.31372809       1.84642603       0.00000000
Si      -2.91041701       0.82220517      -2.33875804       0.00000000
Si      -2.80798223      -2.60804529      -0.71224559       0.00000000
