10
Lattice="16.28999089631971 0.0 0.0 0.0 16.28999089631971 0.0 0.0 0.0 34.474598006748145" Properties=species:S:1:pos:R:3:initial_magmoms:R:1 pbc="T T T"
Si      -1.34428664      -1.34804637       1.35333558       0.00000000
Si      -1.35451187       1.35718506      -1.35730016       0.00000000
Si       1.36078515      -1.35405738      -1.35819650       0.00000000
Si       1.36024758       1.37081979       1.37757123       0.00000000
Si      -2.56211792       0.10085139       2.75896915       0.00000000
Si       0.02753010      -2.66910021       2.71198024       0.00000000
Si       2.75928165      -0.00332316       2.66402605       0.00000000
Si      -2.71223282       0.00026064      -2.71484164       0.00000000
Si      -2.71404504      -2.71381626       0.00075844       0.00000000
Si       0.00332316      -2.71407690      -2.71442794       0.00000000
