10
Lattice="16.28999089631971 0.0 0.0 0.0 16.28999089631971 0.0 0.0 0.0 34.474598006748145" Properties=species:S:1:pos:R:3:initial_magmoms:R:1 pbc="T T T"
Si      -0.11708228      -1.58749308       1.72200713       0.00000000
Si      -0.92237843       2.16548087       0.35405432       0.00000000
Si      -0.65080784      -1.68076962      -1.67257053       0.00000000
Si       2.24872161       0.80345538      -0.59099836       0.00000000
Si       3.05449017      -1.29647223      -1.30403687       0.00000000
Si      -1.66907945       2.70199691      -1.86504232       0.00000000
Si       1.09394469      -0.67921155       3.49869101       0.00000000
Si       1.42557325      -2.18245275      -2.77544801       0.00000000
Si       0.70129379       3.50208026       1.47179036       0.00000000
Si       1.21711012      -3.45175326       1.30455399       0.00000000
