10
Lattice="16.2900001489832 0.0 0.0 0.0 16.2900001489832 0.0 0.0 0.0 29.29437231617968" Properties=species:S:1:pos:R:3:initial_magmoms:R:1 pbc="T T T"
Si       1.06272540      -1.17672282      -1.74600318       0.00000000
Si       1.36227407       1.40372723       1.31931893       0.00000000
Si      -1.80425761       1.03517412      -1.11784395       0.00000000
Si      -1.33495900      -1.45888191       1.33713577       0.00000000
H       -2.84494427       0.06771753      -0.55351716       0.00000000
H        1.82523587      -2.49003892      -1.08216341       0.00000000
Si      -0.95108514      -1.77205717      -2.90799375       0.00000000
Si      -2.79092663      -0.02090007       2.59636608       0.00000000
Si       2.75036127      -0.00359683       2.64178114       0.00000000
Si       2.62999446       2.77739778      -0.12658098       0.00000000
