10
Lattice="16.2900001489832 0.0 0.0 0.0 16.2900001489832 0.0 0.0 0.0 29.29437231617968" Properties=species:S:1:pos:R:3:initial_magmoms:R:1 pbc="T T T"
Si      -1.09732699       0.79322527      -0.71557363       0.00000000
H        1.52373403      -0.16027731      -1.56663374       0.00000000
H       -1.36855549      -1.31597137       1.20590284       0.00000000
Si       2.02725794      -1.32380686      -0.76036473       0.00000000
Si       1.89099209       0.82637542       2.18377828       0.00000000
Si       1.37990962       2.63599895       0.59086749       0.00000000
Si      -0.87900841       3.04968351      -0.00032224       0.00000000
Si      -0.68833396      -2.15886485       2.24957344       0.00000000
Si      -3.19497402      -0.13978449      -0.19893808       0.00000000
Si      -0.77024008       0.70780051      -3.08194373       0.00000000
