10
Lattice="16.2900001489832 0.0 0.0 0.0 16.2900001489832 0.0 0.0 0.0 29.29437231617968" Properties=species:S:1:pos:R:3:initial_magmoms:R:1 pbc="T T T"
Si      -1.14910964      -0.89958268       0.36620895       0.00000000
H        0.38260323       1.85386718      -1.39945075       0.00000000
Si       2.58996341       0.05225832      -0.22304735       0.00000000
Si       1.47470113       1.05331141      -2.07553557       0.00000000
Si       1.87592384       1.33758820       1.60805598       0.00000000
Si      -0.60921343      -2.85145050      -0.83067122       0.00000000
Si      -0.20572641       2.51649388       1.93776414       0.00000000
Si      -3.08001549       0.00219915      -0.80436487       0.00000000
Si      -1.24156354      -0.98544727       2.79562054       0.00000000
Si       2.84066652      -2.18579222       0.54165294       0.00000000
