10
Lattice="16.2900001489832 0.0 0.0 0.0 16.2900001489832 0.0 0.0 0.0 29.29437231617968" Properties=species:S:1:pos:R:3:initial_magmoms:R:1 pbc="T T T"
Si       1.36748035      -1.40663337      -1.31148268       0.00000000
Si      -1.29839446      -1.40110128       1.39157643       0.00000000
Si       1.36200691       1.31808907       1.41583217       0.00000000
Si      -1.39590640       1.36099693      -1.36961737       0.00000000
Si       0.10824705       2.72318303      -2.55994145       0.00000000
Si       2.61777044      -2.70943916       0.24332492       0.00000000
Si      -0.05963769       2.67620267       2.68917065       0.00000000
Si      -2.67428045      -0.00754227       2.71562347       0.00000000
Si      -2.65048076      -2.74124702      -0.03524992       0.00000000
Si       2.69493617       2.73789291       0.06544363       0.00000000
