10
Lattice="16.2900001489832 0.0 0.0 0.0 16.2900001489832 0.0 0.0 0.0 29.29437231617968" Properties=species:S:1:pos:R:3:initial_magmoms:R:1 pbc="T T T"
Si       1.35479044      -1.36202320      -1.37112310       0.00000000
Si       1.39326742       1.27177660       1.43841227       0.00000000
Si      -1.28252800      -1.42149962       1.41547478       0.00000000
Si      -1.32256882       1.31556412      -1.51369881       0.00000000
Si      -0.05649372       2.69223203       2.68553229       0.00000000
Si      -2.67458996      -0.01883124       2.71722880       0.00000000
Si      -2.67737555      -2.72043980      -0.02586693       0.00000000
Si      -0.06680529      -2.71196411      -2.68620606       0.00000000
Si       2.73895176       2.65983122       0.05680179       0.00000000
Si      -2.74421343       2.67367772      -0.24036032       0.00000000
