10
Lattice="16.2900001489832 0.0 0.0 0.0 16.2900001489832 0.0 0.0 0.0 29.29437231617968" Properties=species:S:1:pos:R:3:initial_magmoms:R:1 pbc="T T T"
Si       1.21099861       1.38688174      -1.48868141       0.00000000
Si      -1.40709763      -1.32418153      -1.45698490       0.00000000
Si      -1.35410626       1.44265870       1.43193821       0.00000000
Si       1.76057435      -1.25059960       1.15279214       0.00000000
Si       0.90235198      -1.72317251       3.24663670       0.00000000
Si      -2.71795394       2.64521909      -0.12848512       0.00000000
Si       2.66075975      -0.03357369      -2.73580143       0.00000000
Si       2.10580832       3.23418405      -0.29095171       0.00000000
Si      -0.01503567      -2.72684991      -2.75873892       0.00000000
Si      -3.12896694      -2.44231085      -0.25527116       0.00000000
