10
Lattice="16.2900001489832 0.0 0.0 0.0 16.2900001489832 0.0 0.0 0.0 29.29437231617968" Properties=species:S:1:pos:R:3:initial_magmoms:R:1 pbc="T T T"
H       -1.15518907       1.08657559       0.49369806       0.00000000
Si       1.85456765      -0.20303856       1.40970378       0.00000000
Si       0.74323126       1.72605584      -1.41790621       0.00000000
Si      -1.30767976      -1.90203671      -0.70479330       0.00000000
Si      -2.37684134       2.26945766       0.79141676       0.00000000
Si       1.49602474      -2.23954922       2.41909997       0.00000000
Si      -2.59887404      -0.93387313      -2.41007730       0.00000000
Si       3.67479597      -0.87912244       0.00711853       0.00000000
Si       1.89760583       0.71232913      -3.22888431       0.00000000
Si       1.65537353       1.16911702       3.33926550       0.00000000
