10
Lattice="16.2900001489832 0.0 0.0 0.0 16.2900001489832 0.0 0.0 0.0 29.29437231617968" Properties=species:S:1:pos:R:3:initial_magmoms:R:1 pbc="T T T"
Si       0.32300040       0.40446441      -2.23138163       0.00000000
Si      -1.65085566       1.57219678       0.55615366       0.00000000
Si       1.69032111       0.20610108       1.63509469       0.00000000
Si      -1.09427522      -2.09505692       0.17081548       0.00000000
Si      -2.09751117       0.41796882       2.53451980       0.00000000
Si       0.09910217      -0.16291629       3.31577141       0.00000000
Si       1.82859064       2.12990123      -2.20076901       0.00000000
Si      -2.83388434      -1.62147403       1.74817096       0.00000000
Si      -3.05145358       1.78719221      -1.33391924       0.00000000
Si       1.54198437      -1.33201702      -3.21262593       0.00000000
