10
Lattice="16.2900001489832 0.0 0.0 0.0 16.2900001489832 0.0 0.0 0.0 29.29437231617968" Properties=species:S:1:pos:R:3:initial_magmoms:R:1 pbc="T T T"
Si       1.15518907      -1.08657559      -0.49369806       0.00000000
Si      -1.22165227       1.18288207       0.29771871       0.00000000
Si       1.89842033       0.63948025      -1.91160427       0.00000000
Si      -2.05903973      -0.43191306       1.80822443       0.00000000
Si      -0.15249069      -2.98861230      -1.19849136       0.00000000
Si      -0.04812066       2.86381461       1.48891577       0.00000000
Si      -2.04144653       1.70390144      -1.93044055       0.00000000
Si       3.00975672      -1.28961415       0.91600573       0.00000000
Si       0.13989852       2.12419973      -2.70143913       0.00000000
Si      -1.46572534      -2.68918580       2.25874258       0.00000000
