10
Lattice="16.2900001489832 0.0 0.0 0.0 16.2900001489832 0.0 0.0 0.0 29.29437231617968" Properties=species:S:1:pos:R:3:initial_magmoms:R:1 pbc="T T T"
Si       1.39207825       1.10996803       1.48941377       0.00000000
Si       1.46267911      -1.38419389      -1.15578017       0.00000000
Si      -1.33051834      -1.47807316       1.34870997       0.00000000
Si      -0.51108246       1.80962354      -1.59291079       0.00000000
H       -1.89099209      -0.82637542      -2.18377828       0.00000000
Si       2.36727911       2.72994339       0.07118532       0.00000000
Si       0.13626585      -2.15018228      -2.94414301       0.00000000
Si      -0.10125864       2.40419225       2.76191150       0.00000000
Si       0.26099838       3.74814984      -0.41041416       0.00000000
Si      -2.84340324      -0.19634337       2.62399946       0.00000000
