10
Lattice="16.2900001489832 0.0 0.0 0.0 16.2900001489832 0.0 0.0 0.0 29.29437231617968" Properties=species:S:1:pos:R:3:initial_magmoms:R:1 pbc="T T T"
Si       1.33825609       1.27407349       1.42927243       0.00000000
Si       1.42164460      -1.35811360      -1.27333848       0.00000000
Si      -1.24533793      -1.36177885       1.45809809       0.00000000
Si      -1.39287646       1.39571092      -1.31350107       0.00000000
Si      -2.61464276      -2.68374494       0.02645282       0.00000000
Si       0.05963769      -2.67620267      -2.68917065       0.00000000
Si       2.75457387       0.06169023      -2.62372702       0.00000000
Si      -2.72748359       2.64779291       0.20347871       0.00000000
Si       2.68933241       2.69755886       0.11735326       0.00000000
Si       2.74421343      -2.67367772       0.24036032       0.00000000
