10
Lattice="16.2900001489832 0.0 0.0 0.0 16.2900001489832 0.0 0.0 0.0 29.29437231617968" Properties=species:S:1:pos:R:3:initial_magmoms:R:1 pbc="T T T"
Si      -0.72728335      -1.63134577       1.49395440       0.00000000
Si       0.96018148      -1.10457604      -1.95112237       0.00000000
Si       1.44294541       1.40035357       1.38278226       0.00000000
Si      -1.41081175       1.44661717      -1.38752794       0.00000000
Si       2.85034278       0.19458405      -1.27140505       0.00000000
Si       2.31376646       2.35484984      -0.57170897       0.00000000
Si       0.51350967       2.56714112      -2.12360764       0.00000000
Si      -1.98819452      -2.83108800      -0.02369915       0.00000000
Si      -2.16624422      -0.35725599       2.76802524       0.00000000
H       -0.99391807      -3.33674589      -1.02726575       0.00000000
