10
Lattice="16.2900001489832 0.0 0.0 0.0 16.2900001489832 0.0 0.0 0.0 29.29437231617968" Properties=species:S:1:pos:R:3:initial_magmoms:R:1 pbc="T T T"
Si       0.24954651      -1.88206517       1.40147207       0.00000000
Si      -2.30801609       0.57775744      -0.03327841       0.00000000
Si       0.75983077       0.12316869      -2.25270794       0.00000000
Si       1.05435397       1.36015148       1.69426932       0.00000000
H        0.67134349      -1.30362355       2.75041932       0.00000000
H        2.25491069       1.95959091       0.98279690       0.00000000
H        3.01531161      -0.49309830       1.45177050       0.00000000
H       -0.42394074      -3.28403145      -0.82117984       0.00000000
Si      -1.99796852      -2.10694862       2.05177784       0.00000000
Si      -0.57211132       2.97191505       2.02060862       0.00000000
