10
Lattice="16.2900001489832 0.0 0.0 0.0 16.2900001489832 0.0 0.0 0.0 29.29437231617968" Properties=species:S:1:pos:R:3:initial_magmoms:R:1 pbc="T T T"
Si      -0.59515516       0.19911267       2.25988506       0.00000000
Si      -1.81382636      -0.88523119      -1.21141018       0.00000000
Si       1.01747341       1.83508481      -1.07117802       0.00000000
Si       1.73377730      -1.66244339       0.08495368       0.00000000
Si      -0.51049602      -2.25422651      -2.60939621       0.00000000
Si       2.23135535       0.55801396      -2.62076243       0.00000000
Si       1.85165174      -1.94732291       2.41807467       0.00000000
Si       0.83896759      -3.50974569      -1.11277603       0.00000000
Si       3.53807400      -0.73045990      -1.13952179       0.00000000
Si      -0.36540099      -1.99703999       3.20187489       0.00000000
