10
Lattice="16.2900001489832 0.0 0.0 0.0 16.2900001489832 0.0 0.0 0.0 29.29437231617968" Properties=species:S:1:pos:R:3:initial_magmoms:R:1 pbc="T T T"
Si       1.21388194      -1.27707085      -1.54958441       0.00000000
Si      -1.01747341      -1.83508481       1.07117802       0.00000000
Si      -1.41638293       1.43130457      -1.28271268       0.00000000
Si       1.80382430       0.88948288       1.30720278       0.00000000
Si       2.52060059      -2.56554470      -0.06834377       0.00000000
Si       2.66654270       2.63349029      -0.08794171       0.00000000
Si       0.71630389      -3.49752819       1.15613170       0.00000000
Si       2.54027891       0.08390979      -2.91537593       0.00000000
Si      -0.09026289       2.75136474      -2.72912231       0.00000000
Si      -0.17689311      -2.66582594      -2.85013737       0.00000000
