10
Lattice="16.2900001489832 0.0 0.0 0.0 16.2900001489832 0.0 0.0 0.0 29.29437231617968" Properties=species:S:1:pos:R:3:initial_magmoms:R:1 pbc="T T T"
Si      -0.49818078      -2.14685912      -0.77401591       0.00000000
Si      -0.89845867       0.98886817       1.93893591       0.00000000
Si       2.34891539       0.27684855       0.09535318       0.00000000
Si      -0.96119146       1.43381323      -1.66957416       0.00000000
H       -2.04994991      -0.80376490       1.66831450       0.00000000
H       -2.30461148       1.46901592       1.69157424       0.00000000
Si       0.16684218       3.00426699       1.48856423       0.00000000
Si       2.44136929       0.36271314      -2.33405841       0.00000000
Si       2.43437436       2.48722238       1.03945221       0.00000000
Si      -0.94483630      -3.30108708       1.20435023       0.00000000
