10
Lattice="16.2900001489832 0.0 0.0 0.0 16.2900001489832 0.0 0.0 0.0 29.29437231617968" Properties=species:S:1:pos:R:3:initial_magmoms:R:1 pbc="T T T"
Si      -0.99680140      -2.02725794      -0.62640156       0.00000000
Si       2.18134505       0.42029829      -0.77099859       0.00000000
Si       0.81979426      -0.52101936       2.22815925       0.00000000
Si      -1.49088199       1.76254544      -0.83597350       0.00000000
H        2.04144653      -1.70390144       1.93044055       0.00000000
Si       2.31717107       2.70042590      -0.18502326       0.00000000
Si      -2.58802034      -2.39627531       1.05427517       0.00000000
Si       0.59776156      -3.72435015      -0.97333481       0.00000000
Si      -1.39842809       1.84841003      -3.26538509       0.00000000
H       -1.42602010       1.17542125       3.58296538       0.00000000
