10
Lattice="16.2900001489832 0.0 0.0 0.0 16.2900001489832 0.0 0.0 0.0 29.29437231617968" Properties=species:S:1:pos:R:3:initial_magmoms:R:1 pbc="T T T"
Si       0.14152752       2.36040473      -0.26531913       0.00000000
Si       1.17845119      -1.41841918      -1.55863637       0.00000000
Si       0.55768816      -0.42230196       2.31551507       0.00000000
Si      -2.22220037      -0.95488723      -0.40915450       0.00000000
Si      -1.42003189      -2.67758732       1.06994765       0.00000000
H        2.00655335       2.12868600       1.36286208       0.00000000
H       -0.05315427       3.05794254       1.06221394       0.00000000
Si       0.81873541      -2.79261102       1.87481053       0.00000000
Si       2.17064252       1.28748342       2.59709258       0.00000000
Si       2.44646480      -2.72168435       0.12655169       0.00000000
