10
Lattice="16.2900001489832 0.0 0.0 0.0 16.2900001489832 0.0 0.0 0.0 29.29437231617968" Properties=species:S:1:pos:R:3:initial_magmoms:R:1 pbc="T T T"
Si       1.27731520       1.24613614       1.55277750       0.00000000
Si       1.17446014      -1.53580492      -1.39748217       0.00000000
Si      -1.34651512       1.31929453      -1.48788168       0.00000000
Si      -1.39693267      -1.42133509       1.38281155       0.00000000
Si      -2.46879839      -0.54999927      -2.47962214       0.00000000
Si      -0.76548340      -2.29465829      -2.63365195       0.00000000
Si       2.55505394       2.66663556       0.21481563       0.00000000
H        3.11577204       0.59846203      -2.03359482       0.00000000
Si       2.52359795      -2.80130988       0.10766561       0.00000000
Si      -2.71319726       2.63482770      -0.06375920       0.00000000
