10
Lattice="16.2900001489832 0.0 0.0 0.0 16.2900001489832 0.0 0.0 0.0 29.29437231617968" Properties=species:S:1:pos:R:3:initial_magmoms:R:1 pbc="T T T"
Si      -1.83431918      -0.80197300       1.29703763       0.00000000
Si      -1.36384768       1.20256039      -1.56042333       0.00000000
Si       1.36073629       1.45692874       1.39403130       0.00000000
Si       1.35410626      -1.44265870      -1.43193821       0.00000000
Si      -2.69342120       2.70493823      -0.32546048       0.00000000
Si       1.13098213       3.65308140       0.45204146       0.00000000
H        2.05483691      -1.94786048       2.64800620       0.00000000
Si       2.56510487      -0.05577696      -2.92061963       0.00000000
Si       3.57778902       1.50664582       0.61023107       0.00000000
Si      -0.08768907       2.56873754      -3.01925378       0.00000000
