10
Lattice="16.2900001489832 0.0 0.0 0.0 16.2900001489832 0.0 0.0 0.0 29.29437231617968" Properties=species:S:1:pos:R:3:initial_magmoms:R:1 pbc="T T T"
Si       0.35166852       0.46700172      -1.41866786       0.00000000
Si      -1.30212487      -0.84429442       1.56118498       0.00000000
H       -2.47164914      -0.14590953       0.25310338       0.00000000
Si      -0.17984160       1.02499939       2.55292545       0.00000000
Si       2.36431433       1.42501663      -0.64930976       0.00000000
Si       0.40119012      -2.58895343       1.40715517       0.00000000
Si       1.15072561       2.50537270       1.11585194       0.00000000
Si      -1.37067319       2.14034931      -1.61681500       0.00000000
Si       0.66777598      -1.59741370      -2.51020547       0.00000000
Si      -3.23415961       1.16740657      -0.41073639       0.00000000
