10
Lattice="16.2900001489832 0.0 0.0 0.0 16.2900001489832 0.0 0.0 0.0 29.29437231617968" Properties=species:S:1:pos:R:3:initial_magmoms:R:1 pbc="T T T"
Si      -0.51971616       2.12356442      -0.72515289       0.00000000
Si      -1.52080183      -0.69331870       1.61025306       0.00000000
Si       1.95552981      -0.04261464       1.27741040       0.00000000
Si       0.45465390      -1.43088103      -1.86578787       0.00000000
H       -1.63193221       0.39640086       2.61979572       0.00000000
Si       3.38392173      -0.47125341      -0.53274745       0.00000000
Si       1.20097700       2.43177122      -2.29369076       0.00000000
Si      -0.78740974      -3.25027205      -1.20502401       0.00000000
Si      -0.42995826      -2.54808834       2.52247981       0.00000000
Si       1.71707353      -1.72183673       2.86428655       0.00000000
