10
Lattice="16.2900001489832 0.0 0.0 0.0 16.2900001489832 0.0 0.0 0.0 29.29437231617968" Properties=species:S:1:pos:R:3:initial_magmoms:R:1 pbc="T T T"
Si      -1.72069317      -0.30820680       1.56853787       0.00000000
Si      -0.49773314       2.30874914      -0.21250138       0.00000000
Si      -0.36039182      -1.06686469      -2.10248640       0.00000000
Si       2.16347818      -0.70555249       0.87115604       0.00000000
Si       1.09348581       2.67776651      -1.89317811       0.00000000
Si      -0.18170844       2.86619295       2.01548211       0.00000000
Si      -1.20097700      -2.43177122       2.29369076       0.00000000
Si       2.68804876       0.98067430      -2.24011136       0.00000000
Si      -3.68068970      -0.36137736       0.24431507       0.00000000
Si      -1.58656131      -3.02573721      -1.60656197       0.00000000
