10
Lattice="16.2900001489832 0.0 0.0 0.0 16.2900001489832 0.0 0.0 0.0 29.29437231617968" Properties=species:S:1:pos:R:3:initial_magmoms:R:1 pbc="T T T"
Si      -1.39326742      -1.27177660      -1.43841227       0.00000000
Si       1.34568433       1.38805462      -1.38161048       0.00000000
Si      -1.44976114       1.42045543       1.24712002       0.00000000
Si       1.36640521      -1.55031931       1.24738367       0.00000000
Si      -2.67579542      -2.69327622      -0.02293749       0.00000000
Si      -2.66075975       0.03357369       2.73580143       0.00000000
Si       2.77330737      -0.28812123       2.62126043       0.00000000
Si       2.68960934       2.72714150       0.04631440       0.00000000
Si      -0.03847698      -2.63379980      -2.80953537       0.00000000
Si       2.73758339      -2.72580410      -0.22281300       0.00000000
