10
Lattice="16.2900001489832 0.0 0.0 0.0 16.2900001489832 0.0 0.0 0.0 29.29437231617968" Properties=species:S:1:pos:R:3:initial_magmoms:R:1 pbc="T T T"
Si      -1.37117818       1.17548478       1.47019666       0.00000000
Si      -1.44177904      -1.34995557      -1.26176720       0.00000000
Si       1.37888335      -1.41317478       1.26434511       0.00000000
Si       1.40292739       1.42322310      -1.26320263       0.00000000
Si       0.03572397       2.43768286       2.84407343       0.00000000
Si      -0.04535136      -2.59545477      -2.72030471       0.00000000
Si      -0.00636939       2.79739865      -2.55077818       0.00000000
Si      -2.77606038       0.09200429      -2.58672237       0.00000000
Si       2.72870534      -2.66512710      -0.15678348       0.00000000
Si       2.89281081      -0.11687098       2.49341979       0.00000000
