10
Lattice="16.2900001489832 0.0 0.0 0.0 16.2900001489832 0.0 0.0 0.0 29.29437231617968" Properties=species:S:1:pos:R:3:initial_magmoms:R:1 pbc="T T T"
Si       1.37117818      -1.17548478      -1.47019666       0.00000000
Si       1.40690215       1.26219808       1.37387677       0.00000000
Si      -1.36640521       1.55031931      -1.24738367       0.00000000
Si      -1.11195541      -1.48180683       1.54809040       0.00000000
Si      -0.09381411       1.21828024       3.17791210       0.00000000
Si      -2.26659062       0.33329340       2.64120990       0.00000000
Si      -0.07060086      -2.52544035      -2.73196387       0.00000000
Si      -2.73382041      -2.54687148       0.19709254       0.00000000
Si       2.75006154      -2.58865956      -0.20585155       0.00000000
Si       2.95283946      -0.10453293       2.46799228       0.00000000
