10
Lattice="16.2900001489832 0.0 0.0 0.0 16.2900001489832 0.0 0.0 0.0 29.29437231617968" Properties=species:S:1:pos:R:3:initial_magmoms:R:1 pbc="T T T"
Si      -0.53657631       2.16026579       0.69969608       0.00000000
Si       1.50531004       0.89277346      -1.56349924       0.00000000
Si       1.10910466      -1.17926569       1.74632542       0.00000000
Si      -1.89016130      -1.29916009      -0.67971732       0.00000000
Si      -2.85034278      -0.19458405       1.27140505       0.00000000
Si      -0.25949970      -2.95117788      -1.15759642       0.00000000
Si      -1.40739737       1.20576952       2.65418731       0.00000000
Si      -2.33683310       2.37255707      -0.85220258       0.00000000
Si       3.20675169      -0.24625593       1.22968987       0.00000000
Si       0.46056717       0.15767091      -3.46883451       0.00000000
