10
Lattice="16.2900001489832 0.0 0.0 0.0 16.2900001489832 0.0 0.0 0.0 29.29437231617968" Properties=species:S:1:pos:R:3:initial_magmoms:R:1 pbc="T T T"
Si       1.61723863       1.38726619       1.04950018       0.00000000
Si       1.15031836      -1.09307530      -1.76847196       0.00000000
Si      -0.76931155      -1.59760918       1.72412028       0.00000000
Si      -1.67666456       1.65870972      -1.36511775       0.00000000
Si       0.21284514       3.01288440       2.03285367       0.00000000
Si      -0.53582697      -2.20038806      -2.95981550       0.00000000
Si      -1.94776274      -0.17919000       3.28275666       0.00000000
Si       2.18535239       0.55185699      -3.11905970       0.00000000
Si      -2.24130854      -3.11290500       0.51042514       0.00000000
Si       2.38813031       3.03598362      -0.44521587       0.00000000
