10
Lattice="16.2900001489832 0.0 0.0 0.0 16.2900001489832 0.0 0.0 0.0 29.29437231617968" Properties=species:S:1:pos:R:3:initial_magmoms:R:1 pbc="T T T"
H       -1.04068666      -0.96745659       0.56432679       0.00000000
Si      -0.36730692      -0.79447145      -2.16620166       0.00000000
Si      -1.07662240       1.79710467       1.05333775       0.00000000
Si       1.80425761      -1.03517412       1.11784395       0.00000000
H        2.02073379       2.23302508      -0.90083124       0.00000000
Si       0.85317247      -2.80723129      -1.79014980       0.00000000
Si      -2.38873304       0.40155665       2.45334216       0.00000000
Si       0.46929861      -2.49405604       2.45497972       0.00000000
Si       2.86698301      -2.21189695      -0.62815923       0.00000000
H        2.56260273       1.72723686      -2.39288151       0.00000000
