10
Lattice="16.2900001489832 0.0 0.0 0.0 16.2900001489832 0.0 0.0 0.0 29.29437231617968" Properties=species:S:1:pos:R:3:initial_magmoms:R:1 pbc="T T T"
Si       1.41833773      -1.78263101       0.47714674       0.00000000
Si      -1.02741031       0.21002697       2.08136515       0.00000000
Si       0.95117311       1.94360879      -1.02316454       0.00000000
Si      -1.62251659      -1.41333670      -1.07440040       0.00000000
H        0.55899136      -2.24218820       1.66227986       0.00000000
H       -2.17111493       2.28341819      -1.16322094       0.00000000
Si      -1.00804150       3.26805096      -0.99823503       0.00000000
Si      -0.17531298       2.19973646       2.81911463       0.00000000
Si       1.79393627       1.11211831      -3.09826070       0.00000000
Si       0.82429030      -3.55977228      -0.91621079       0.00000000
