10
Lattice="16.2900001489832 0.0 0.0 0.0 16.2900001489832 0.0 0.0 0.0 29.29437231617968" Properties=species:S:1:pos:R:3:initial_magmoms:R:1 pbc="T T T"
Si      -1.07781157      -1.58019517      -1.36945332       0.00000000
Si       1.60622659       1.13968099      -1.32287527       0.00000000
Si       1.50895900      -1.33283152       1.44576516       0.00000000
Si      -1.79458787       1.87483241       0.00609323       0.00000000
Si      -2.38453022      -0.29172132      -2.85069396       0.00000000
Si       0.35653923       2.38480715      -2.88742910       0.00000000
Si      -2.88210828      -2.51217866      -0.14497785       0.00000000
Si       2.52841979       0.26704197       2.90529867       0.00000000
Si       2.48749931       2.99446041      -0.06661540       0.00000000
Si      -3.59841216       0.98534953      -1.30110955       0.00000000
