10
Lattice="16.2900001489832 0.0 0.0 0.0 16.2900001489832 0.0 0.0 0.0 29.29437231617968" Properties=species:S:1:pos:R:3:initial_magmoms:R:1 pbc="T T T"
Si      -2.18134505      -0.42029829       0.77099859       0.00000000
Si       0.13582602       2.28012761       0.58597533       0.00000000
Si       0.41000301       0.14190219      -2.31894251       0.00000000
Si       1.75852181      -1.48471948       0.78983487       0.00000000
Si       2.42646068       2.30557259       0.17500458       0.00000000
Si      -1.36155079      -0.94131766       2.99915784       0.00000000
H       -0.13989852      -2.12419973       2.70143913       0.00000000
H        3.11104794       1.21461499       1.20212386       0.00000000
Si       2.63705780      -0.60833377      -2.41760596       0.00000000
Si      -0.92750374      -1.46761498      -3.24464468       0.00000000
