10
Lattice="16.2900001489832 0.0 0.0 0.0 16.2900001489832 0.0 0.0 0.0 29.29437231617968" Properties=species:S:1:pos:R:3:initial_magmoms:R:1 pbc="T T T"
Si       0.03896894      -0.66837871      -1.34976750       0.00000000
H       -0.54186894       0.50578821       1.49205027       0.00000000
Si       0.45855536       1.44142066       2.12811897       0.00000000
Si      -2.10806286      -1.49463032      -1.69157424       0.00000000
Si       1.88732032       2.43056576       0.44562599       0.00000000
Si       0.27742522       1.01084338      -2.93664365       0.00000000
Si       1.66543423      -2.28014227      -1.67610681       0.00000000
Si       0.87549954       2.94559041      -1.72461829       0.00000000
H       -2.70926160       2.36543834      -0.32288257       0.00000000
Si       2.16786670      -2.96619107       0.55864368       0.00000000
