10
Lattice="16.2900001489832 0.0 0.0 0.0 16.2900001489832 0.0 0.0 0.0 29.29437231617968" Properties=species:S:1:pos:R:3:initial_magmoms:R:1 pbc="T T T"
Si       1.28840869      -1.23403267      -1.49837785       0.00000000
Si       1.68614534       1.10731276       1.19134353       0.00000000
Si      -1.43479063       1.44733393      -1.21940754       0.00000000
Si      -0.86271841      -1.74400742       1.39514448       0.00000000
Si       2.53809605      -2.47915883       0.06617599       0.00000000
Si       3.41936877      -0.62437942       1.32243585       0.00000000
Si       0.53582697       2.20038806       2.95981550       0.00000000
Si      -2.66654270      -2.63349029       0.08794171       0.00000000
Si      -0.12626379      -2.54958050      -2.82743423       0.00000000
Si      -2.75680560       0.11787444      -2.64118061       0.00000000
