10
Lattice="16.2900001489832 0.0 0.0 0.0 16.2900001489832 0.0 0.0 0.0 29.29437231617968" Properties=species:S:1:pos:R:3:initial_magmoms:R:1 pbc="T T T"
H       -0.85934638      -0.45955719       1.18513313       0.00000000
Si      -1.41833773       1.78263101      -0.47714674       0.00000000
Si      -0.59404744      -1.77714128      -1.39335752       0.00000000
Si       2.04167459      -0.27393264       1.10348971       0.00000000
Si       1.06956883      -3.13807305      -0.57296863       0.00000000
Si      -2.81110017      -1.82685836      -0.60955730       0.00000000
Si      -3.04085433       0.36929430      -1.55154714       0.00000000
Si       2.99327124      -1.80364511      -0.39119705       0.00000000
Si      -2.44574804       1.99265798       1.60421842       0.00000000
Si      -2.16990947       0.10254555       3.00068115       0.00000000
