10
Lattice="16.2900001489832 0.0 0.0 0.0 16.2900001489832 0.0 0.0 0.0 29.29437231617968" Properties=species:S:1:pos:R:3:initial_magmoms:R:1 pbc="T T T"
Si       1.37245043      -1.26596107      -1.45602990       0.00000000
Si      -1.25960308      -1.36072000       1.48128751       0.00000000
Si       1.38388927       1.26068311       1.47323156       0.00000000
Si      -1.47857327       1.28313073      -1.37598010       0.00000000
Si      -2.72992221       2.59641425       0.08689590       0.00000000
Si      -2.59253235      -2.75095749       0.09621444       0.00000000
Si       2.75555615       2.60346782       0.11728588       0.00000000
Si       2.31173510       0.27552906      -3.01818160       0.00000000
Si       0.01009817      -2.61407261      -2.78728336       0.00000000
Si       2.76663335      -2.67823892      -0.11534073       0.00000000
