10
Lattice="16.2900001489832 0.0 0.0 0.0 16.2900001489832 0.0 0.0 0.0 29.29437231617968" Properties=species:S:1:pos:R:3:initial_magmoms:R:1 pbc="T T T"
Si       0.63488647       2.06387786       1.04759605       0.00000000
Si       0.86371210      -1.95504437       1.11427004       0.00000000
Si      -1.45735228      -0.08649990      -1.94666963       0.00000000
Si      -1.70276114      -0.74039680       1.58599732       0.00000000
H       -0.97117723      -1.22838004      -2.84339966       0.00000000
Si      -3.26699211      -0.91320112      -0.59974368       0.00000000
Si       0.93942802       3.23783301      -1.03769455       0.00000000
Si       1.82215055      -0.86123602       3.01819918       0.00000000
Si       2.44144748       1.35822763       2.50179798       0.00000000
H       -0.91992889      -3.13711194      -1.91678937       0.00000000
