10
Lattice="16.2900001489832 0.0 0.0 0.0 16.2900001489832 0.0 0.0 0.0 29.29437231617968" Properties=species:S:1:pos:R:3:initial_magmoms:R:1 pbc="T T T"
Si      -1.43896087       1.27408978       1.27407084       0.00000000
Si      -1.26091117      -1.19974222      -1.51765355       0.00000000
Si       0.72728335       1.63134577      -1.49395440       0.00000000
Si       1.53325717      -1.27273771       1.27389507       0.00000000
H       -0.26663472      -1.70540012      -2.52122015       0.00000000
Si      -3.14105412       1.40823793      -0.57909115       0.00000000
Si      -2.54211968      -2.71679735      -0.23359332       0.00000000
Si       2.17022875       3.03169935      -0.11117214       0.00000000
Si      -2.49927698      -0.13046661       2.79655210       0.00000000
Si       0.04458573       2.62446563       2.68519833       0.00000000
