10
Lattice="16.2900001489832 0.0 0.0 0.0 16.2900001489832 0.0 0.0 0.0 29.29437231617968" Properties=species:S:1:pos:R:3:initial_magmoms:R:1 pbc="T T T"
Si      -0.48617505       1.14188014       0.89673003       0.00000000
H       -0.11821653      -0.45048366      -1.70127067       0.00000000
H        0.05124834      -1.90873190       0.92661029       0.00000000
H        1.77200993      -1.79093891      -0.01145410       0.00000000
Si       0.08340480      -1.66845440      -2.53457839       0.00000000
Si      -2.29581488       0.31517892       2.24365598       0.00000000
Si       0.97117723       1.22838004       2.84339966       0.00000000
H        2.69454521       1.23294124      -1.50757628       0.00000000
Si      -1.20847366       3.07781634      -0.51074738       0.00000000
Si       1.96669172      -2.48847671      -1.33898717       0.00000000
