10
Lattice="16.2900001489832 0.0 0.0 0.0 16.2900001489832 0.0 0.0 0.0 29.29437231617968" Properties=species:S:1:pos:R:3:initial_magmoms:R:1 pbc="T T T"
Si      -1.86724127       0.51227163       1.36087007       0.00000000
Si       1.61295436       1.70978538       0.28157751       0.00000000
Si      -0.55768816       0.42230196      -2.31551507       0.00000000
Si       0.26104725      -2.37030905      -0.44070454       0.00000000
H        1.44886519       2.55098796      -0.95265299       0.00000000
Si      -1.97772005      -2.25528536      -1.24556742       0.00000000
H        2.49737105      -1.10224657       1.96553520       0.00000000
Si      -3.04041450      -1.33108849       0.60929365       0.00000000
Si       1.88877665      -2.29938239      -2.18896338       0.00000000
H       -0.61084243       3.48024450      -1.25330113       0.00000000
