10
Lattice="16.2900001489832 0.0 0.0 0.0 16.2900001489832 0.0 0.0 0.0 29.29437231617968" Properties=species:S:1:pos:R:3:initial_magmoms:R:1 pbc="T T T"
H       -0.35166852      -0.46700172       1.41866786       0.00000000
Si       0.31610745      -2.06441543      -1.09153761       0.00000000
Si       2.01264581       0.95801491       0.76935810       0.00000000
Si      -1.72234172       1.67334759      -0.19814713       0.00000000
H       -0.26381655       0.50614659      -2.67539643       0.00000000
H       -2.60778467      -0.30437865      -1.37674762       0.00000000
H       -2.82331767      -0.61291126       1.67177124       0.00000000
Si       0.79905709       2.03837098       2.53451980       0.00000000
Si       1.16401825       0.55680850      -3.16253255       0.00000000
H        1.74073313       1.75410200      -2.41702007       0.00000000
