10
Lattice="16.2900001489832 0.0 0.0 0.0 16.2900001489832 0.0 0.0 0.0 29.29437231617968" Properties=species:S:1:pos:R:3:initial_magmoms:R:1 pbc="T T T"
Si      -0.61929694      -2.21946365       0.51640120       0.00000000
Si       1.84103066      -0.69115213      -1.38697135       0.00000000
Si      -1.80656102       0.70565023      -1.45420194       0.00000000
Si       0.13867677       1.27984015       2.27324329       0.00000000
Si      -2.19932921      -1.67400929       2.13869424       0.00000000
Si      -2.44144748      -1.35822763      -2.50179798       0.00000000
Si       3.80102718      -0.63798157      -0.06274855       0.00000000
Si      -3.62678934       1.38173410      -0.05161668       0.00000000
Si       2.09315099       2.53239455       2.08233187       0.00000000
Si      -1.57773538      -3.31327200      -1.38752794       0.00000000
