10
Lattice="16.2900001489832 0.0 0.0 0.0 16.2900001489832 0.0 0.0 0.0 29.29437231617968" Properties=species:S:1:pos:R:3:initial_magmoms:R:1 pbc="T T T"
Si      -1.71690086       1.37911141      -0.95200851       0.00000000
Si       0.53427942       1.03503403       2.14133073       0.00000000
Si      -1.17765298      -2.02636199       0.84206673       0.00000000
Si       1.61258582       0.16439868      -1.89824603       0.00000000
H        0.29274759      -2.30451374      -2.15864371       0.00000000
Si      -2.61223184      -0.88715341       2.43052478       0.00000000
H        3.10667244      -1.83018152       0.83111064       0.00000000
Si      -3.64060326       0.04468347      -1.13378009       0.00000000
Si       3.17053902       1.79807393      -1.24211068       0.00000000
Si       1.86499813      -0.40843917       3.39630164       0.00000000
