10
Lattice="16.2900001489832 0.0 0.0 0.0 16.2900001489832 0.0 0.0 0.0 29.29437231617968" Properties=species:S:1:pos:R:3:initial_magmoms:R:1 pbc="T T T"
Si      -0.71403958       1.28532988       1.83110333       0.00000000
Si       0.25070310      -2.23805054       0.76470029       0.00000000
Si      -1.11526228       1.00105309      -1.85248822       0.00000000
H       -2.58996341      -0.05225832       0.22304735       0.00000000
Si       2.52768674       0.72412309      -0.07531583       0.00000000
Si       1.17740863       2.43267858       0.96905784       0.00000000
H        1.33405327      -0.91489528      -2.57854924       0.00000000
H       -2.20736018       1.80160886      -1.17640340       0.00000000
Si       2.49712670       0.06973749      -2.41356334       0.00000000
Si      -0.02347389      -0.09982512       3.66961814       0.00000000
