10
Lattice="16.2900001489832 0.0 0.0 0.0 16.2900001489832 0.0 0.0 0.0 29.29437231617968" Properties=species:S:1:pos:R:3:initial_magmoms:R:1 pbc="T T T"
H        0.03321531      -1.18236079      -0.94357173       0.00000000
Si       1.17328726       1.80601856      -0.89529461       0.00000000
Si      -2.21012948       0.77856264       0.21795013       0.00000000
Si       0.81032977      -0.84654244       2.05423856       0.00000000
Si      -3.14413293      -0.86654656      -1.18809186       0.00000000
Si       0.61126597       3.37880667       0.78517706       0.00000000
Si       2.96020254      -1.44635653       1.31285659       0.00000000
H        1.38091960      -1.66519640      -2.87568206       0.00000000
Si      -0.32316102       2.51315606       2.82538362       0.00000000
Si      -2.51139674       1.75053645       2.39358457       0.00000000
