10
Lattice="16.2900001489832 0.0 0.0 0.0 16.2900001489832 0.0 0.0 0.0 29.29437231617968" Properties=species:S:1:pos:R:3:initial_magmoms:R:1 pbc="T T T"
Si       1.50415345       1.36218610      -1.19032409       0.00000000
Si      -1.39942504       1.39769830       1.32603613       0.00000000
Si       1.39590640      -1.36099693       1.36961737       0.00000000
Si      -1.37494117      -1.32124933      -1.43399468       0.00000000
H        0.82393192       2.20507958      -2.23399469       0.00000000
H        2.56393199       0.54885897      -1.98414299       0.00000000
Si      -2.64266156      -2.69491988       0.01190523       0.00000000
Si      -0.05660775       2.71091666       2.74528695       0.00000000
Si      -2.78803515       0.10518453      -2.69002019       0.00000000
Si      -2.70817994       0.03140712       2.78052808       0.00000000
