10
Lattice="16.2900001489832 0.0 0.0 0.0 16.2900001489832 0.0 0.0 0.0 29.29437231617968" Properties=species:S:1:pos:R:3:initial_magmoms:R:1 pbc="T T T"
Si       2.09764703       0.93300976      -0.51663555       0.00000000
Si      -1.10910466       1.17926569      -1.74632542       0.00000000
Si      -0.35678358      -2.28693683      -0.73367755       0.00000000
Si      -0.85183669       0.97019983       2.06203087       0.00000000
H        1.82641853      -1.17618688       1.40484092       0.00000000
H        3.19497402       0.13978449       0.19893808       0.00000000
Si      -2.51650203       2.38503521       0.90786189       0.00000000
Si      -1.36860436      -1.77191219      -2.90392183       0.00000000
Si      -1.78554855      -3.27608193       0.94881542       0.00000000
Si      -2.99926596      -0.11989440      -2.42604274       0.00000000
