10
Lattice="16.2900001489832 0.0 0.0 0.0 16.2900001489832 0.0 0.0 0.0 29.29437231617968" Properties=species:S:1:pos:R:3:initial_magmoms:R:1 pbc="T T T"
Si      -1.37339362       1.33172380       1.41456665       0.00000000
Si       1.33154461      -1.31308804       1.48777329       0.00000000
Si      -1.47219247      -1.45218835      -1.22227546       0.00000000
Si       1.39693267       1.42133509      -1.38281155       0.00000000
Si       2.56860722      -2.72686457       0.07039438       0.00000000
Si       2.67424787       2.66747123       0.16996595       0.00000000
Si       2.57139281      -0.11446983      -2.78029372       0.00000000
Si      -2.64668519       2.71772588      -0.00960855       0.00000000
Si      -2.81737507      -0.06810849      -2.54878909       0.00000000
Si       0.00871515       2.65805561       2.81680037       0.00000000
