10
Lattice="16.2900001489832 0.0 0.0 0.0 16.2900001489832 0.0 0.0 0.0 29.29437231617968" Properties=species:S:1:pos:R:3:initial_magmoms:R:1 pbc="T T T"
Si       1.38290535       1.39978342       1.28455823       0.00000000
Si       1.34882993      -1.38157120      -1.34774619       0.00000000
Si      -1.30101552       1.32967126      -1.47295033       0.00000000
Si      -1.29606336      -1.30839652       1.50860159       0.00000000
Si      -2.64663470      -2.69895980       0.13109232       0.00000000
Si      -0.05074172       2.75599110       2.61806735       0.00000000
Si       2.80443918       0.02174715       2.57239742       0.00000000
Si      -2.64604826       2.73590553      -0.16882347       0.00000000
Si       2.72049681      -0.03878649      -2.70369187       0.00000000
Si      -0.03505934      -2.64225431      -2.82097775       0.00000000
