10
Lattice="16.2900001489832 0.0 0.0 0.0 16.2900001489832 0.0 0.0 0.0 29.29437231617968" Properties=species:S:1:pos:R:3:initial_magmoms:R:1 pbc="T T T"
Si       1.29839446       1.40110128      -1.39157643       0.00000000
Si      -1.37588599       1.39355901       1.32404704       0.00000000
Si      -1.35208630      -1.34014573      -1.42682635       0.00000000
Si       1.30559464      -1.31681356       1.51208762       0.00000000
Si      -2.75064798      -0.02714891       2.59981695       0.00000000
Si      -2.68250690      -2.67858264       0.01013585       0.00000000
Si       2.66587481      -0.00553208      -2.70305911       0.00000000
Si       2.63842616      -2.72883729       0.18971036       0.00000000
Si       2.66040137       2.71919036       0.02425574       0.00000000
Si      -0.00658116       2.71552511       2.75569231       0.00000000
