10
Lattice="16.2900001489832 0.0 0.0 0.0 16.2900001489832 0.0 0.0 0.0 29.29437231617968" Properties=species:S:1:pos:R:3:initial_magmoms:R:1 pbc="T T T"
Si      -1.27329157       1.38600208      -1.42417520       0.00000000
Si       1.38210877       1.32633181       1.40223372       0.00000000
Si       1.37339362      -1.33172380      -1.41456665       0.00000000
Si      -1.43639031      -1.34534224       1.35140798       0.00000000
Si      -0.04756680       2.70678715       2.63710869       0.00000000
Si       2.70493823      -2.64481184       0.07320664       0.00000000
Si      -0.01485648      -2.72337851       2.63924718       0.00000000
Si      -2.71924900       0.03347595      -2.66024246       0.00000000
Si      -0.09879885      -2.78391216      -2.63684211       0.00000000
Si       2.71480997       2.74777116       0.07777656       0.00000000
