10
Lattice="16.2900001489832 0.0 0.0 0.0 16.2900001489832 0.0 0.0 0.0 29.29437231617968" Properties=species:S:1:pos:R:3:initial_magmoms:R:1 pbc="T T T"
Si       1.87470209       0.80767450      -1.14400383       0.00000000
Si       0.17097984       1.35516511       1.90574539       0.00000000
Si       0.60852925      -2.22218408       0.63026842       0.00000000
Si      -2.25015401       0.55908910      -0.72638326       0.00000000
Si       1.57164292      -0.45232443      -3.13906776       0.00000000
Si      -3.20899971       0.37967103       1.49222603       0.00000000
Si       3.64970937      -0.11505627       0.31629134       0.00000000
Si      -0.80241283       3.41619222       1.22304004       0.00000000
Si      -1.65032363       0.79496830       3.29403499       0.00000000
Si       2.80029990      -2.02768148       1.53209567       0.00000000
