10
Lattice="10.86 0.0 0.0 0.0 10.86 0.0 0.0 0.0 10.86" Properties=species:S:1:pos:R:3:initial_magmoms:R:1 pbc="T T T"
Si      -1.22493198       1.32266112      -1.22740806       0.00000000
Si       1.41741462       1.26409314       1.42535328       0.00000000
Si       1.41741462      -1.45090686      -1.28964672       0.00000000
Si      -1.29758538      -1.45090686       1.42535328       0.00000000
Si      -2.69893806      -0.13093902      -2.45197080       0.00000000
Si      -2.47388628       2.72471970       0.19832532       0.00000000
Si       0.05991462       2.62159314       2.78285328       0.00000000
Si       2.83163640       2.59941702       0.13425132       0.00000000
Si      -2.65508538      -0.09340686       2.78285328       0.00000000
Si       2.73157236      -0.09929298      -2.71862724       0.00000000
