10
Lattice="10.86 0.0 0.0 0.0 10.86 0.0 0.0 0.0 10.86" Properties=species:S:1:pos:R:3:initial_magmoms:R:1 pbc="T T T"
Si      -1.31176854      -1.18110102       1.26118266       0.00000000
Si       1.40323146       1.53389898       1.26118266       0.00000000
Si      -1.31176854       1.53389898      -1.45381734       0.00000000
Si      -2.48806944      -2.43547446       0.03415470       0.00000000
Si       0.04573146      -2.53860102       2.61868266       0.00000000
Si      -2.66926854       0.17639898       2.61868266       0.00000000
Si      -2.65765920       0.03756474      -2.68639476       0.00000000
Si       2.81745324      -2.56077714      -0.02991930       0.00000000
Si       2.76073146       0.17639898       2.61868266       0.00000000
Si       0.04573146       2.89139898       2.61868266       0.00000000
