10
Lattice="10.86 0.0 0.0 0.0 10.86 0.0 0.0 0.0 10.86" Properties=species:S:1:pos:R:3:initial_magmoms:R:1 pbc="T T T"
Si      -1.49521566       1.13003730      -1.17176142       0.00000000
Si       1.21978434       1.13003730       1.54323858       0.00000000
Si       1.21978434      -1.58496270      -1.17176142       0.00000000
Si      -0.13771566       2.48753730      -2.52926142       0.00000000
Si       2.57728434       2.48753730       0.18573858       0.00000000
Si       2.57728434      -0.22746270      -2.52926142       0.00000000
Si      -2.75058822      -0.34059132      -2.49938556       0.00000000
Si      -2.85271566       2.48753730       0.18573858       0.00000000
Si      -0.13771566       2.48753730       2.90073858       0.00000000
Si       2.57728434      -0.22746270       2.90073858       0.00000000
