10
Lattice="16.28999089631971 0.0 0.0 0.0 16.28999089631971 0.0 0.0 0.0 34.395419527814205" Properties=species:S:1:pos:R:3:initial_magmoms:R:1 pbc="T T T"
Si       1.35630540      -1.18712561       1.43659429       0.00000000
Si      -1.32571278       1.34536504       1.35875741       0.00000000
Si      -1.35172791      -1.35106069      -1.33567807       0.00000000
Si       1.36612827       1.36299082      -1.33505896       0.00000000
Si       2.15278866       0.78593386       2.70138336       0.00000000
Si       0.29348064       2.41578094       2.75710397       0.00000000
Si      -2.70658350       0.00584322      -2.69398834       0.00000000
Si       0.00737937      -2.70940234      -2.69233736       0.00000000
Si       0.00767259       2.72053426      -2.69388516       0.00000000
Si      -2.70233181      -2.71207390       0.05207469       0.00000000
