10
Lattice="16.28999089631971 0.0 0.0 0.0 16.28999089631971 0.0 0.0 0.0 34.395419527814205" Properties=species:S:1:pos:R:3:initial_magmoms:R:1 pbc="T T T"
Si       1.35526284      -1.35765747       1.35803511       0.00000000
Si      -1.35892809       1.35593073       1.35738159       0.00000000
Si       1.34860023       1.34519562      -1.38475005       0.00000000
Si      -1.34071587      -1.36076886      -1.38415844       0.00000000
Si       2.71197549      -2.71089383      -0.00474657       0.00000000
Si       2.71365336      -0.00008145       2.71404089       0.00000000
Si      -0.00096111       2.71484253       2.71404089       0.00000000
Si       2.71410948       2.71477737      -0.00570964       0.00000000
Si      -0.00096111      -2.71502172       2.71421286       0.00000000
Si      -2.71508688       2.71503801      -0.00357713       0.00000000
