10
Lattice="16.28999089631971 0.0 0.0 0.0 16.28999089631971 0.0 0.0 0.0 34.395419527814205" Properties=species:S:1:pos:R:3:initial_magmoms:R:1 pbc="T T T"
Si      -1.35839052       1.35676152       1.35999565       0.00000000
Si       1.35615879      -1.35910728       1.36095872       0.00000000
Si       1.35799956       1.35925389      -1.37109506       0.00000000
Si      -1.35856971      -1.37979558      -1.36411966       0.00000000
Si      -2.71300502      -2.71402803       0.00288922       0.00000000
Si      -2.71529539       2.71467963      -0.00110065       0.00000000
Si       2.71508688      -2.71503801       0.00357713       0.00000000
Si       2.71482624       2.71581993       0.00202933       0.00000000
Si       2.71412577      -0.00019548       2.71761801       0.00000000
Si      -0.00078192       2.71471221       2.71772120       0.00000000
