10
Lattice="16.28999089631971 0.0 0.0 0.0 16.28999089631971 0.0 0.0 0.0 34.395419527814205" Properties=species:S:1:pos:R:3:initial_magmoms:R:1 pbc="T T T"
Si      -1.17820683       1.85220558      -0.84045255       0.00000000
Si       1.25683866       0.49961430       1.92700446       0.00000000
Si      -1.74723282      -1.57271805       0.38024158       0.00000000
Si       1.68622677      -0.10663434      -1.81852124       0.00000000
Si       0.49578615       2.06540910      -2.41504134       0.00000000
Si      -1.76090013      -2.77275348      -1.65015557       0.00000000
Si       3.07525878      -1.89047079      -0.82834535       0.00000000
Si      -1.74377934      -0.89725320      -3.18178446       0.00000000
Si       3.11116194       1.80405234       1.17202458       0.00000000
Si      -2.79218745       1.20796866      -2.40417238       0.00000000
