10
Lattice="16.28999089631971 0.0 0.0 0.0 16.28999089631971 0.0 0.0 0.0 34.395419527814205" Properties=species:S:1:pos:R:3:initial_magmoms:R:1 pbc="T T T"
Si       0.58150413      -1.91831040      -1.17818136       0.00000000
Si      -2.29356684      -0.25860375       0.35685268       0.00000000
Si       1.10130174       0.82951938       1.92920576       0.00000000
Si       1.57416786      -0.10583613      -2.34140070       0.00000000
Si      -2.70047475       1.33835382      -1.26895092       0.00000000
Si      -0.52259949      -0.16413804       3.45519380       0.00000000
Si      -2.61977409       0.40935141       2.53769547       0.00000000
Si       3.55436397       0.55734606      -0.90064456       0.00000000
Si       3.42733455       0.36308781       1.54043412       0.00000000
Si      -1.19443167       2.70953199      -2.45841398       0.00000000
