10
Lattice="16.28999089631971 0.0 0.0 0.0 16.28999089631971 0.0 0.0 0.0 34.395419527814205" Properties=species:S:1:pos:R:3:initial_magmoms:R:1 pbc="T T T"
Si      -1.41630147      -1.80957465      -0.13627473       0.00000000
Si       0.33549255      -0.20083941       2.31591368       0.00000000
Si      -1.04800086       2.10403269      -0.19261446       0.00000000
Si       1.76640615      -0.85802688      -1.31803321       0.00000000
Si       1.92295305      -2.86288605      -0.05902257       0.00000000
Si       0.57590037       3.09769011      -1.71860249       0.00000000
Si       1.80415008       1.55484792       2.72597610       0.00000000
Si      -1.54608390       2.71849149       2.03545327       0.00000000
Si      -1.53617958       0.77752170       3.35352088       0.00000000
Si       3.68194725       0.58702644      -0.82851733       0.00000000
