10
Lattice="16.28999089631971 0.0 0.0 0.0 16.28999089631971 0.0 0.0 0.0 34.395419527814205" Properties=species:S:1:pos:R:3:initial_magmoms:R:1 pbc="T T T"
Si      -1.10130174      -0.82951938      -1.92920576       0.00000000
Si      -0.11989440       2.29855158       0.62998686       0.00000000
Si       2.32603281      -0.46643157      -0.38877164       0.00000000
Si      -1.62390123      -0.99365742       1.52598804       0.00000000
Si       1.05195933       1.95913314       2.72346524       0.00000000
Si      -0.57590037      -3.09769011       1.71860249       0.00000000
Si       2.45306223      -0.27217332      -2.82985033       0.00000000
Si      -3.72107583      -0.42016797       0.60848971       0.00000000
Si       0.86299533       3.50371836      -1.25168441       0.00000000
Si      -3.39486858      -1.08812313      -1.57235309       0.00000000
