10
Lattice="16.28999089631971 0.0 0.0 0.0 16.28999089631971 0.0 0.0 0.0 34.395419527814205" Properties=species:S:1:pos:R:3:initial_magmoms:R:1 pbc="T T T"
Si       0.11989440      -2.29855158      -0.62998686       0.00000000
Si       1.17185373      -0.33941844       2.09347838       0.00000000
Si       0.98288973       1.20516678      -1.88167127       0.00000000
Si      -2.23361964       1.04407497       0.14256909       0.00000000
Si      -1.50400683      -3.29220900       0.89600118       0.00000000
Si       2.44592721      -2.76498315      -1.01875850       0.00000000
Si      -0.81112797       1.11177621      -3.60526110       0.00000000
Si       1.20078477       1.61932374       3.35499989       0.00000000
Si      -2.31414111       2.36554064      -2.16677506       0.00000000
Si       3.44113218       0.84543471      -1.80631086       0.00000000
