10
Lattice="16.28999089631971 0.0 0.0 0.0 16.28999089631971 0.0 0.0 0.0 34.395419527814205" Properties=species:S:1:pos:R:3:initial_magmoms:R:1 pbc="T T T"
Si      -0.01366731      -1.20003543      -2.03039714       0.00000000
Si      -0.33674688      -1.19700549       2.00766176       0.00000000
Si       1.74723282       1.57271805      -0.38024158       0.00000000
Si      -2.16113403       1.01224431       0.16117703       0.00000000
Si      -2.07325111      -2.47845345       1.02343628       0.00000000
Si       0.00345348       0.67546485      -3.56202603       0.00000000
Si       0.56902599       3.42492363      -1.22069412       0.00000000
Si      -1.94540067       2.13557013       2.29231841       0.00000000
Si      -3.62339189      -0.84991446       0.32943951       0.00000000
Si       1.63646082      -2.98300851      -1.65462698       0.00000000
