10
Lattice="16.28999089631971 0.0 0.0 0.0 16.28999089631971 0.0 0.0 0.0 34.395419527814205" Properties=species:S:1:pos:R:3:initial_magmoms:R:1 pbc="T T T"
Si      -0.42777540      -1.97016147       1.20734869       0.00000000
Si      -1.09309158       0.34461495      -2.06059634       0.00000000
Si      -0.52932726       1.51723431       1.73989327       0.00000000
Si       2.33346105       0.00902466      -0.51479653       0.00000000
Si      -0.17140338      -1.38494322      -3.38643732       0.00000000
Si      -0.43422624       2.56923341      -2.58694974       0.00000000
Si       1.63556487      -3.09200490       1.15565235       0.00000000
Si       3.31441227       0.87674409       1.47405092       0.00000000
Si       0.15732882       0.40943286       3.81135857       0.00000000
Si       0.73604736       3.47503886       1.55009924       0.00000000
