10
Lattice="16.28999089631971 0.0 0.0 0.0 16.28999089631971 0.0 0.0 0.0 34.395419527814205" Properties=species:S:1:pos:R:3:initial_magmoms:R:1 pbc="T T T"
Si      -2.24311671       0.87573411       0.15636166       0.00000000
Si       0.20571012      -2.42764983      -0.39939983       0.00000000
Si       0.75020337      -1.01845080       2.22149820       0.00000000
Si       0.91396674       1.34304534      -2.18094598       0.00000000
Si       2.45796552      -2.35483353      -1.04046202       0.00000000
Si       3.58694397      -0.35780985      -0.51311116       0.00000000
Si      -0.76488066      -2.62570365      -2.49934456       0.00000000
Si      -3.69458829      -1.16217747      -0.30061613       0.00000000
Si      -2.92977279       1.98353556      -1.91510363       0.00000000
Si      -2.82822093      -1.50386022      -2.44764821       0.00000000
