10
Lattice="16.28999089631971 0.0 0.0 0.0 16.28999089631971 0.0 0.0 0.0 34.395419527814205" Properties=species:S:1:pos:R:3:initial_magmoms:R:1 pbc="T T T"
Si      -2.09023506       0.91505654      -0.37687082       0.00000000
Si       0.85375890      -0.95275486      -1.98637098       0.00000000
Si      -0.55060200      -1.16991685       1.98186518       0.00000000
Si       1.49159385       1.46176523       1.14774140       0.00000000
Si       0.60737265       2.52314018      -1.92552545       0.00000000
Si      -2.75564898      -0.19317985      -2.34944923       0.00000000
Si       3.34230075       0.02150117       1.67502347       0.00000000
Si      -0.47620557       0.44412893       3.69235035       0.00000000
Si      -1.75057227       2.91874283      -1.61011928       0.00000000
Si      -3.04010496       1.35464219       1.81724861       0.00000000
