10
Lattice="16.28999089631971 0.0 0.0 0.0 16.28999089631971 0.0 0.0 0.0 34.395419527814205" Properties=species:S:1:pos:R:3:initial_magmoms:R:1 pbc="T T T"
Si       2.09023506      -0.91505654       0.37687082       0.00000000
Si      -0.66541392      -1.10823639      -1.97257841       0.00000000
Si       0.33966279       2.00368629      -1.23324846       0.00000000
Si      -0.94986990       0.43958565       2.19411943       0.00000000
Si      -0.19008801       3.34215414       0.68467560       0.00000000
Si      -2.33890191       2.22342210       1.20394354       0.00000000
Si       2.69760771       1.60808364      -1.54865463       0.00000000
Si       1.53963306      -2.08497339       2.35873600       0.00000000
Si      -2.90278026      -0.23905575      -2.01963137       0.00000000
Si       2.94399396      -1.86781140      -1.60950016       0.00000000
