10
Lattice="16.28999089631971 0.0 0.0 0.0 16.28999089631971 0.0 0.0 0.0 34.395419527814205" Properties=species:S:1:pos:R:3:initial_magmoms:R:1 pbc="T T T"
Si       1.35684297      -1.35850455       1.36192179       0.00000000
Si      -1.35879777       1.35861858       1.36281607       0.00000000
Si       1.36260963       1.36787130      -1.38271040       0.00000000
Si      -1.36550925      -1.36958175      -1.37904040       0.00000000
Si       2.71401174       2.71422351       0.00364592       0.00000000
Si      -2.71410948      -2.71477737       0.00570964       0.00000000
Si       2.71583622      -2.71443528      -0.00158219       0.00000000
Si      -2.71437012       2.71608057       0.00416185       0.00000000
Si       2.71461447       0.00034209       2.71968174       0.00000000
Si      -0.00045612      -2.71485882       2.71975053       0.00000000
