10
Lattice="16.28999089631971 0.0 0.0 0.0 16.28999089631971 0.0 0.0 0.0 34.395419527814205" Properties=species:S:1:pos:R:3:initial_magmoms:R:1 pbc="T T T"
Si       1.35609363       1.35687555      -1.35638413       0.00000000
Si       1.35234693      -1.35995436       1.35896379       0.00000000
Si      -1.35850455      -1.35821133      -1.35617775       0.00000000
Si      -1.35777150       1.35542574       1.36075235       0.00000000
Si       0.00403992      -2.71446786       2.69385076       0.00000000
Si       2.71352304      -0.00063531      -2.71380012       0.00000000
Si      -0.00136836       2.71427238      -2.71369693       0.00000000
Si       2.71458189       2.71469592       0.00055033       0.00000000
Si       2.71440270      -2.71494027       0.00092868       0.00000000
Si      -0.00154755      -2.71583622      -2.71373133       0.00000000
