10
Lattice="16.28999089631971 0.0 0.0 0.0 16.28999089631971 0.0 0.0 0.0 34.395419527814205" Properties=species:S:1:pos:R:3:initial_magmoms:R:1 pbc="T T T"
Si       1.85368797       0.84041739      -1.37612711       0.00000000
Si      -0.92962143      -1.79318691      -1.45327608       0.00000000
Si       0.26029791      -0.62369523       2.39615824       0.00000000
Si      -1.79066196       1.72999800      -0.14851950       0.00000000
Si       1.63914867       1.95608691       0.85482984       0.00000000
Si      -2.09764701      -0.22809258       2.71156441       0.00000000
Si       0.44890353       2.10872421      -2.89798769       0.00000000
Si      -2.27970405      -0.61804260      -2.94765471       0.00000000
Si      -2.85518088      -2.55392991      -0.24585860       0.00000000
Si      -0.79633665       3.52082286      -1.42197623       0.00000000
