10
Lattice="16.28999089631971 0.0 0.0 0.0 16.28999089631971 0.0 0.0 0.0 34.395419527814205" Properties=species:S:1:pos:R:3:initial_magmoms:R:1 pbc="T T T"
Si      -0.31180689      -1.87722702      -1.34630626       0.00000000
Si       0.11534949       1.80538812      -1.48089562       0.00000000
Si       1.88190225      -0.51728895       1.31156687       0.00000000
Si      -0.94739382       0.51225534       2.16340431       0.00000000
Si      -1.63738935       3.10637268      -0.58018226       0.00000000
Si      -1.75457961       2.68566714       1.78856281       0.00000000
Si      -2.53462626      -1.15652484       2.52355895       0.00000000
Si      -0.45841689       0.98101638      -3.63632018       0.00000000
Si       2.32329609       2.65574241      -1.55518976       0.00000000
Si       1.29005397      -3.55125258      -1.04888890       0.00000000
