10
Lattice="16.28999089631971 0.0 0.0 0.0 16.28999089631971 0.0 0.0 0.0 34.395419527814205" Properties=species:S:1:pos:R:3:initial_magmoms:R:1 pbc="T T T"
Si      -1.35887922       1.35319401       1.36130267       0.00000000
Si       1.35707103      -1.35982404       1.36075235       0.00000000
Si       1.35549090       1.35668007      -1.37179328       0.00000000
Si      -1.37116188      -1.37042883      -1.38077393       0.00000000
Si       2.61153135      -0.11310147      -2.74636228       0.00000000
Si       2.71381626       2.71073745       0.00319878       0.00000000
Si      -2.71458189       2.71037907      -0.00333636       0.00000000
Si      -0.00040725       2.71205694       2.71754922       0.00000000
Si      -2.71482624      -2.71689507       0.00202933       0.00000000
Si       2.71437012      -0.00255753       2.71775559       0.00000000
