10
Lattice="16.28999089631971 0.0 0.0 0.0 16.28999089631971 0.0 0.0 0.0 34.395419527814205" Properties=species:S:1:pos:R:3:initial_magmoms:R:1 pbc="T T T"
Si      -1.35725022      -1.35689184       1.35621215       0.00000000
Si       1.35679410      -1.35710361      -1.35782874       0.00000000
Si      -1.35804843       1.35747828      -1.35796632       0.00000000
Si       1.35824391       1.35839052       1.35690006       0.00000000
Si      -0.00135207       2.71381626      -2.71417847       0.00000000
Si      -0.00172674      -2.71373481      -2.71479759       0.00000000
Si       2.71425609      -2.71450044      -0.00051593       0.00000000
Si       2.71459818       0.00079821      -2.71472879       0.00000000
Si       2.71363707      -0.00097740       2.71593263       0.00000000
Si       2.71505430       2.71474479      -0.00020637       0.00000000
