10
Lattice="16.28999089631971 0.0 0.0 0.0 16.28999089631971 0.0 0.0 0.0 34.395419527814205" Properties=species:S:1:pos:R:3:initial_magmoms:R:1 pbc="T T T"
Si      -1.89014499       0.62159382       1.20779583       0.00000000
Si       0.84098754      -2.03799303       0.79281486       0.00000000
Si       1.36783872       1.74882924       0.76223732       0.00000000
Si      -0.01234782      -0.34622766      -2.34669760       0.00000000
Si       2.40585381      -0.74072259      -2.43234224       0.00000000
Si       0.31804596       3.54700089      -0.55232196       0.00000000
Si      -3.35880252      -1.13409351       0.79773341       0.00000000
Si      -1.12207149       0.53703243       3.42324044       0.00000000
Si       2.51501310      -2.58512526      -0.86580198       0.00000000
Si       0.69698394       2.06920467       3.05610352       0.00000000
