10
Lattice="16.28999089631971 0.0 0.0 0.0 16.28999089631971 0.0 0.0 0.0 34.395419527814205" Properties=species:S:1:pos:R:3:initial_magmoms:R:1 pbc="T T T"
Si       1.35671265      -1.35327546      -1.36343519       0.00000000
Si      -1.36021500       1.36125756      -1.36254091       0.00000000
Si      -1.34622189      -1.35632169       1.38964452       0.00000000
Si       1.36321236       1.36119240       1.39501020       0.00000000
Si       2.71210581      -2.71264338      -0.00440262       0.00000000
Si       2.71221984       2.71643895       0.00006879       0.00000000
Si      -2.71476108      -2.71410948      -0.00185735       0.00000000
Si      -0.00153126      -2.71166598      -2.72033525       0.00000000
Si       2.71352304       0.00307881      -2.72054162       0.00000000
Si      -2.71736748       0.00392589      -2.72067921       0.00000000
