10
Lattice="16.28999089631971 0.0 0.0 0.0 16.28999089631971 0.0 0.0 0.0 34.395419527814205" Properties=species:S:1:pos:R:3:initial_magmoms:R:1 pbc="T T T"
Si       0.00873144       2.37530584       0.25401032       0.00000000
Si      -0.98288973      -1.20516678       1.88167127       0.00000000
Si       2.45824245      -0.35973207       0.07536041       0.00000000
Si      -1.79401770      -0.09339057      -1.72358983       0.00000000
Si      -0.54020898       1.18833174      -3.22887181       0.00000000
Si      -3.29703084       1.16037386      -0.28510379       0.00000000
Si       0.25627428       3.16139120      -1.96408274       0.00000000
Si      -3.21650937      -0.16109181       2.02424036       0.00000000
Si      -0.86299533      -3.50371836       1.25168441       0.00000000
Si      -2.22863490       3.24448649       0.20695735       0.00000000
