10
Lattice="16.28999089631971 0.0 0.0 0.0 16.28999089631971 0.0 0.0 0.0 34.395419527814205" Properties=species:S:1:pos:R:3:initial_magmoms:R:1 pbc="T T T"
Si      -0.86547141       1.30696299       1.67784390       0.00000000
Si      -1.63916496      -1.66167774       0.04612428       0.00000000
Si       1.99179459      -0.94149684       0.84169078       0.00000000
Si      -0.24731478       0.83784357      -2.21668284       0.00000000
Si      -2.26186650       2.68684721       0.26436334       0.00000000
Si      -1.33037172      -2.64499101      -2.04945222       0.00000000
Si      -0.27624582      -1.12089861      -3.47820435       0.00000000
Si       0.84652614       2.68110335       2.37579614       0.00000000
Si       3.69142803       0.24703785      -0.30140723       0.00000000
Si       1.74856860       1.82225546      -2.86802926       0.00000000
