10
Lattice="16.28999089631971 0.0 0.0 0.0 16.28999089631971 0.0 0.0 0.0 34.395419527814205" Properties=species:S:1:pos:R:3:initial_magmoms:R:1 pbc="T T T"
Si      -1.35694071      -1.35765534      -1.35810390       0.00000000
Si       1.35811359      -1.35781238       1.35745039       0.00000000
Si       1.35790182       1.35801259      -1.35751918       0.00000000
Si      -1.35796698       1.35841984       1.35765676       0.00000000
Si       0.00130320      -2.71465749       2.71476319       0.00000000
Si      -2.71471221      -2.71480410       0.00013758       0.00000000
Si       2.71547784       0.00034372       2.71455682       0.00000000
Si       2.71516833      -2.71501587       0.00037835       0.00000000
Si      -0.00048870      -2.71612359      -2.71421286       0.00000000
Si      -2.71534752       0.00057341       2.71500396       0.00000000
