10
Lattice="16.28999089631971 0.0 0.0 0.0 16.28999089631971 0.0 0.0 0.0 34.395419527814205" Properties=species:S:1:pos:R:3:initial_magmoms:R:1 pbc="T T T"
Si       1.35750855       1.35737565      -1.35665929       0.00000000
Si      -1.35736425      -1.35815610      -1.35710643       0.00000000
Si       1.35588298      -1.35774272       1.36088993       0.00000000
Si      -1.35788553       1.35778290       1.36377915       0.00000000
Si      -2.71417464      -2.71500121       0.00020637       0.00000000
Si       2.71500447      -0.00012706      -2.71417847       0.00000000
Si      -0.00017919       2.71517973      -2.71417847       0.00000000
Si       2.71533842       2.71416975       0.00037835       0.00000000
Si       2.71565444      -2.71387720       0.00030956       0.00000000
Si      -0.00030951      -2.71535959      -2.71417847       0.00000000
