10
Lattice="16.28999089631971 0.0 0.0 0.0 16.28999089631971 0.0 0.0 0.0 34.395419527814205" Properties=species:S:1:pos:R:3:initial_magmoms:R:1 pbc="T T T"
Si      -1.35685926       1.35806472      -1.36346959       0.00000000
Si       1.35788553      -1.35778290      -1.36377915       0.00000000
Si       1.35654975       1.34894232       1.39136429       0.00000000
Si      -1.35689184      -1.35277047       1.39298087       0.00000000
Si       2.71376851      -2.71552562      -0.00288922       0.00000000
Si       2.71696023       2.71466334      -0.00292361       0.00000000
Si      -2.71891503       2.71305063      -0.00543448       0.00000000
Si      -2.71567332      -2.71750499       0.00013758       0.00000000
Si       0.00011403       2.71477737      -2.72067921       0.00000000
Si       2.71539408      -0.00040725      -2.72043844       0.00000000
