10
Lattice="16.28999089631971 0.0 0.0 0.0 16.28999089631971 0.0 0.0 0.0 34.395419527814205" Properties=species:S:1:pos:R:3:initial_magmoms:R:1 pbc="T T T"
Si      -1.13790537       0.97225236       1.78587997       0.00000000
Si       0.65171403       1.87181874      -1.27957911       0.00000000
Si      -1.49159385      -1.46176523      -1.14774140       0.00000000
Si       1.85070690      -1.44026406       0.52728208       0.00000000
Si      -0.88422120       1.06137495      -3.07326685       0.00000000
Si      -1.96779942      -1.01763630       2.54460895       0.00000000
Si      -2.04219585      -2.63168208       0.83412379       0.00000000
Si       2.95031448      -1.16466984      -1.50473165       0.00000000
Si       2.92012911       1.21617882      -1.70329652       0.00000000
Si       0.23571630       1.21886667       3.69922944       0.00000000
