10
Lattice="16.28999089631971 0.0 0.0 0.0 16.28999089631971 0.0 0.0 0.0 34.395419527814205" Properties=species:S:1:pos:R:3:initial_magmoms:R:1 pbc="T T T"
Si       0.77889006       0.30946276      -2.29042666       0.00000000
Si      -2.44152891       0.13338578       0.07188647       0.00000000
Si       1.14662052       1.38323603       1.70126719       0.00000000
Si       0.43821729      -2.12806437       1.36309124       0.00000000
Si       3.53073437      -0.09294748      -0.11584384       0.00000000
Si       2.57441688      -1.25529504      -2.40056086       0.00000000
Si      -0.18151947      -1.27961601       3.52432863       0.00000000
Si      -1.10457603      -0.52177263      -3.67883294       0.00000000
Si       0.04701294       1.10764181       3.73328092       0.00000000
Si      -2.07694242      -2.37076908      -2.36179720       0.00000000
