10
Lattice="16.28999089631971 0.0 0.0 0.0 16.28999089631971 0.0 0.0 0.0 34.395419527814205" Properties=species:S:1:pos:R:3:initial_magmoms:R:1 pbc="T T T"
Si       2.00211986      -0.97923492      -0.38540089       0.00000000
Si      -0.18272493       2.37918382      -0.03436104       0.00000000
Si      -1.45826451      -1.00876869      -1.60757402       0.00000000
Si       0.82563489      -0.86769729       2.14869686       0.00000000
Si       2.97899207      -0.09238711      -2.24254821       0.00000000
Si       0.55956885       2.84131483      -2.36324181       0.00000000
Si      -0.48685923      -0.65058417      -3.68155018       0.00000000
Si      -2.52949491       2.81731966      -0.17479762       0.00000000
Si       1.96974675       0.94293850       3.28534022       0.00000000
Si      -0.94703544      -1.96872210       3.30948582       0.00000000
