10
Lattice="16.28999089631971 0.0 0.0 0.0 16.28999089631971 0.0 0.0 0.0 34.395419527814205" Properties=species:S:1:pos:R:3:initial_magmoms:R:1 pbc="T T T"
Si      -1.41885900      -1.77461046      -0.61880834       0.00000000
Si      -0.71993655       0.73713716       2.13643828       0.00000000
Si       1.96903746      -1.17862452       0.60529093       0.00000000
Si       0.51232050       1.63254796      -1.67154953       0.00000000
Si       2.94044274      -0.82044000      -1.46868523       0.00000000
Si       0.89780706       2.64746383       2.03806733       0.00000000
Si      -1.03615803      -3.06666810       1.32363967       0.00000000
Si      -0.05264928       0.31168634      -3.51934129       0.00000000
Si       1.32690195      -1.55037861      -3.01249011       0.00000000
Si       2.85219981       1.49330104      -1.80875294       0.00000000
