10
Lattice="16.28999089631971 0.0 0.0 0.0 16.28999089631971 0.0 0.0 0.0 34.395419527814205" Properties=species:S:1:pos:R:3:initial_magmoms:R:1 pbc="T T T"
Si      -2.17624626       0.51184809       0.78091404       0.00000000
Si      -1.96170696      -0.60382143      -1.45004291       0.00000000
Si       0.68504337       1.93173336      -1.53991819       0.00000000
Si       1.99353503      -1.91591577       0.03948596       0.00000000
Si       2.38096988      -1.30363983       2.35990545       0.00000000
Si       2.04818635       0.64858635      -2.97809467       0.00000000
Si      -0.67132719      -2.07187623      -2.95965871       0.00000000
Si      -1.92282273       2.86365168       1.33987432       0.00000000
Si       3.39352370      -0.69700023      -1.45303531       0.00000000
Si       0.72071376      -3.42772551      -1.39545735       0.00000000
