10
Lattice="16.28999089631971 0.0 0.0 0.0 16.28999089631971 0.0 0.0 0.0 34.395419527814205" Properties=species:S:1:pos:R:3:initial_magmoms:R:1 pbc="T T T"
Si       1.36314298      -1.28314701      -1.43817648       0.00000000
Si       1.44472167       1.45189512       1.27613957       0.00000000
Si      -1.35630540       1.42760673      -1.43267321       0.00000000
Si      -0.68504337      -1.93173336       1.53991819       0.00000000
Si      -0.35256447       2.47612887       2.64941186       0.00000000
Si      -2.64675033      -2.53555479       0.08987528       0.00000000
Si       2.70848033      -2.62873359       0.08688288       0.00000000
Si       0.00403992      -2.63788857      -2.81402843       0.00000000
Si      -2.71485882       0.07613946      -2.81674567       0.00000000
Si       2.71833578       0.07351677      -2.81578259       0.00000000
