10
Lattice="16.28999089631971 0.0 0.0 0.0 16.28999089631971 0.0 0.0 0.0 34.395419527814205" Properties=species:S:1:pos:R:3:initial_magmoms:R:1 pbc="T T T"
Si       2.17624626      -0.51184809      -0.78091404       0.00000000
Si       0.25342353       2.35180359       0.55896028       0.00000000
Si       0.21453930      -1.11566952      -2.23095695       0.00000000
Si      -1.63914867      -1.95608691      -0.85482984       0.00000000
Si      -1.37885076      -2.57978214       1.54132840       0.00000000
Si      -3.42981063      -0.22608891      -1.00334934       0.00000000
Si      -0.08935065       2.20970592       2.91951924       0.00000000
Si      -1.38549708       3.25760904      -0.97263422       0.00000000
Si      -2.43548532       1.56473595      -2.27680607       0.00000000
Si       0.15708447      -1.76933835       3.33501614       0.00000000
