10
Lattice="16.28999089631971 0.0 0.0 0.0 16.28999089631971 0.0 0.0 0.0 34.395419527814205" Properties=species:S:1:pos:R:3:initial_magmoms:R:1 pbc="T T T"
Si       1.79728614      -1.02423375      -1.37327229       0.00000000
Si      -1.22368851       1.88441091      -1.06980133       0.00000000
Si       0.93043008       0.68931135       2.35319834       0.00000000
Si      -2.25530163      -1.54421055       0.23038065       0.00000000
Si      -1.24331796       0.24017976       3.21583594       0.00000000
Si      -2.04947748       2.11051611       1.99342205       0.00000000
Si      -2.34233910       0.38980341      -2.70031711       0.00000000
Si       0.35256447      -2.47612887      -2.64941186       0.00000000
Si       0.32091300       3.12425910      -2.52875266       0.00000000
Si      -2.59807581      -1.68630822       2.59093961       0.00000000
