10
Lattice="16.28999089631971 0.0 0.0 0.0 16.28999089631971 0.0 0.0 0.0 34.395419527814205" Properties=species:S:1:pos:R:3:initial_magmoms:R:1 pbc="T T T"
Si      -1.55188314      -1.02820851       1.39910326       0.00000000
Si      -1.36645407       1.27526265      -1.41888064       0.00000000
Si       1.33859817      -1.43832555      -1.38176796       0.00000000
Si       1.11865059       1.49460750       1.63051577       0.00000000
Si       0.08703747      -1.93401396       2.93069775       0.00000000
Si      -2.59866225       2.44454256       0.15405717       0.00000000
Si       2.34233910      -0.38980341       2.70031711       0.00000000
Si      -3.32692299       0.55687365       1.65696587       0.00000000
Si      -2.60187138      -2.72108160       0.09493141       0.00000000
Si       2.66325210       2.73445569       0.17156445       0.00000000
