10
Lattice="16.28999089631971 0.0 0.0 0.0 16.28999089631971 0.0 0.0 0.0 34.395419527814205" Properties=species:S:1:pos:R:3:initial_magmoms:R:1 pbc="T T T"
Si      -0.60696540       2.22006636       0.08110444       0.00000000
Si       2.12182137      -0.58969800      -0.81905858       0.00000000
Si      -0.15270246      -0.69610428       2.27642772       0.00000000
Si      -1.36935369      -1.46653983      -1.35335733       0.00000000
Si       1.89341928      -2.85926967      -0.13589638       0.00000000
Si       0.29502819      -3.06080955      -1.77934484       0.00000000
Si       1.56102183      -2.38479084       2.21166111       0.00000000
Si      -2.36064906      -1.54645857       2.35072187       0.00000000
Si       1.33221249       3.43663614      -0.47881890       0.00000000
Si      -2.44468917       2.47318038      -1.33732905       0.00000000
