10
Lattice="16.28999089631971 0.0 0.0 0.0 16.28999089631971 0.0 0.0 0.0 34.395419527814205" Properties=species:S:1:pos:R:3:initial_magmoms:R:1 pbc="T T T"
Si       1.35738054      -1.35606105       1.35741599       0.00000000
Si      -1.35645201       1.35846825       1.35610896       0.00000000
Si       1.37668419       1.34992049      -1.35905665       0.00000000
Si      -1.35832536      -1.35405738      -1.37499206       0.00000000
Si      -0.02590110       2.61199303      -2.72744823       0.00000000
Si       2.63818179      -0.12085551      -2.74901073       0.00000000
Si      -2.71381626      -2.71073745      -0.00319878       0.00000000
Si       0.00055386      -2.71329498       2.71455682       0.00000000
Si      -2.71422351       0.00131949       2.71435044       0.00000000
Si       2.71730232      -2.71212210      -0.00175417       0.00000000
