10
Lattice="16.28999089631971 0.0 0.0 0.0 16.28999089631971 0.0 0.0 0.0 34.395419527814205" Properties=species:S:1:pos:R:3:initial_magmoms:R:1 pbc="T T T"
Si       1.35728264       1.35777262      -1.35576501       0.00000000
Si      -1.35705474       1.35720349       1.35707204       0.00000000
Si       1.35719778      -1.35672894       1.35758797       0.00000000
Si      -1.35827649      -1.35716877      -1.35717522       0.00000000
Si       0.00239463       2.71135062      -2.71534791       0.00000000
Si      -2.71386513       0.00035838       2.71438484       0.00000000
Si      -0.00161271      -2.71466334       2.71404089       0.00000000
Si       2.71442455      -2.71446786      -0.00027516       0.00000000
Si      -2.71510317      -2.71440270      -0.00003440       0.00000000
Si       0.00030951       2.71535959       2.71417847       0.00000000
