10
Lattice="16.28999089631971 0.0 0.0 0.0 16.28999089631971 0.0 0.0 0.0 34.395419527814205" Properties=species:S:1:pos:R:3:initial_magmoms:R:1 pbc="T T T"
Si      -1.28803401      -1.96633332      -0.44968597       0.00000000
Si      -0.61973676       0.84844836       2.16123739       0.00000000
Si       2.09751573      -1.13370255       0.62843906       0.00000000
Si      -0.43821729       2.12806437      -1.36309124       0.00000000
Si       1.21023967      -0.49140414       2.81695204       0.00000000
Si       0.70840323       3.51130040       0.33817595       0.00000000
Si       1.69187355      -3.38753808      -0.08990968       0.00000000
Si       2.81601062       2.47264022       0.86693703       0.00000000
Si      -2.87974620       2.26145015      -1.29120477       0.00000000
Si      -0.48187449      -3.83666967       0.77272793       0.00000000
