10
Lattice="16.28999089631971 0.0 0.0 0.0 16.28999089631971 0.0 0.0 0.0 34.395419527814205" Properties=species:S:1:pos:R:3:initial_magmoms:R:1 pbc="T T T"
Si       1.92935176      -0.90733671       1.00592900       0.00000000
Si      -1.99428111      -1.22636007      -0.31991198       0.00000000
Si      -0.79342400       1.66097727       1.51711401       0.00000000
Si       0.58998796       0.78491736      -2.18617409       0.00000000
Si       0.09391022       3.50161695       0.34233780       0.00000000
Si       0.64609072      -2.07778950       2.76893601       0.00000000
Si       2.94258976       1.20344004       1.52605683       0.00000000
Si      -1.66188366      -1.70083890      -2.66746946       0.00000000
Si      -1.96394913      -2.47555872       1.71389032       0.00000000
Si      -1.43348157       0.56873277      -3.35063167       0.00000000
