10
Lattice="16.28999089631971 0.0 0.0 0.0 16.28999089631971 0.0 0.0 0.0 34.395419527814205" Properties=species:S:1:pos:R:3:initial_magmoms:R:1 pbc="T T T"
Si      -1.35769494      -1.35689184       1.35779434       0.00000000
Si       1.35760860       1.35795069       1.35772555       0.00000000
Si       1.35839052      -1.35676152      -1.35999565       0.00000000
Si      -1.35690487       1.35791811      -1.36109630       0.00000000
Si      -2.71406780      -2.71423980      -0.00055033       0.00000000
Si       2.71526607       2.71450044      -0.00017198       0.00000000
Si      -0.00014661      -2.71453302       2.71524473       0.00000000
Si      -2.71503299       0.00037467       2.71496956       0.00000000
Si       2.71495656       0.00061902       2.71538231       0.00000000
Si       0.00014661       2.71546155       2.71493517       0.00000000
