10
Lattice="16.28999089631971 0.0 0.0 0.0 16.28999089631971 0.0 0.0 0.0 34.395419527814205" Properties=species:S:1:pos:R:3:initial_magmoms:R:1 pbc="T T T"
Si      -1.39115786       1.29207393      -1.30279603       0.00000000
Si       1.28668194       1.31856147       1.38138961       0.00000000
Si       1.34833959      -1.44288675      -1.30750821       0.00000000
Si      -1.28192200      -1.43335710       1.41977492       0.00000000
Si       1.69358985      -0.27839610       3.00719321       0.00000000
Si       0.46737639      -2.43897138       2.70310314       0.00000000
Si      -0.01210347       2.62339047      -2.67097780       0.00000000
Si       2.70777267      -0.09586665      -2.66925802       0.00000000
Si      -2.72429365      -0.09081675      -2.66832935       0.00000000
Si      -0.00830790      -2.81173545      -2.67214724       0.00000000
