10
Lattice="16.28999089631971 0.0 0.0 0.0 16.28999089631971 0.0 0.0 0.0 34.395419527814205" Properties=species:S:1:pos:R:3:initial_magmoms:R:1 pbc="T T T"
Si       0.12665475       1.96843473       1.27335354       0.00000000
Si       1.65833829      -1.28704032       1.10120437       0.00000000
Si       0.35059338       0.29286162      -2.36564949       0.00000000
Si      -2.19834269      -0.62415135       0.78548863       0.00000000
Si       2.14422012      -2.90629890      -0.49209554       0.00000000
Si      -2.11863572       2.78339085       1.27744660       0.00000000
Si      -1.42682155       1.68463035      -3.08231285       0.00000000
Si      -3.58797743       1.29016800       0.14525194       0.00000000
Si       0.50759640       1.38556224       3.52886883       0.00000000
Si       0.06415002      -1.69940538      -3.51971964       0.00000000
