10
Lattice="16.28999089631971 0.0 0.0 0.0 16.28999089631971 0.0 0.0 0.0 34.395419527814205" Properties=species:S:1:pos:R:3:initial_magmoms:R:1 pbc="T T T"
Si      -0.01462842      -2.36672523       0.45264397       0.00000000
Si       2.45453973       0.56343852      -0.21101602       0.00000000
Si      -0.95213910      -0.38595897      -2.36678454       0.00000000
Si      -1.48519258       0.91285902       1.99813422       0.00000000
Si       0.28013424       3.45286098      -0.23168768       0.00000000
Si       2.78387466      -0.84349620      -2.35784172       0.00000000
Si      -0.06480488       1.45468071      -3.54156075       0.00000000
Si       1.55520141      -2.68933239       2.25287208       0.00000000
Si       2.56001748       2.99480247      -0.42505883       0.00000000
Si      -3.31650946      -0.09275526      -2.27381366       0.00000000
