10
Lattice="16.28999089631971 0.0 0.0 0.0 16.28999089631971 0.0 0.0 0.0 34.395419527814205" Properties=species:S:1:pos:R:3:initial_magmoms:R:1 pbc="T T T"
Si      -1.34861204      -1.34400645       1.35549329       0.00000000
Si      -1.42773257       1.24726014      -1.39176328       0.00000000
Si       1.37021406      -1.26434835      -1.43547988       0.00000000
Si       1.36348629       1.37336103       1.35411747       0.00000000
Si       2.05867670       0.59432436      -2.69970666       0.00000000
Si       0.34493775       2.34828495      -2.55255224       0.00000000
Si      -2.68923017       2.71803614      -0.00180920       0.00000000
Si       0.00471703      -2.70449838       2.71400993       0.00000000
Si      -2.69649551      -2.72435589      -0.02528065       0.00000000
Si      -2.70853382       0.01205460       2.71466344       0.00000000
