10
Lattice="16.28999089631971 0.0 0.0 0.0 16.28999089631971 0.0 0.0 0.0 34.395419527814205" Properties=species:S:1:pos:R:3:initial_magmoms:R:1 pbc="T T T"
Si      -0.68846264      -1.85867271       1.26422678       0.00000000
Si       1.97522766       0.79534296       1.22250511       0.00000000
Si      -1.71373895       1.75396059       0.14715442       0.00000000
Si      -0.27425844      -0.62146350      -2.48490154       0.00000000
Si      -0.53725397       1.64242296      -2.38694333       0.00000000
Si      -2.05867670      -0.59432436       2.69970666       0.00000000
Si       0.67113171       2.13174198       2.69408300       0.00000000
Si       2.00562480      -1.07952201      -2.67827270       0.00000000
Si      -2.03958526      -3.16146546      -0.25507964       0.00000000
Si      -3.48640928       0.65293578       1.30794338       0.00000000
