10
Lattice="10.86 0.0 0.0 0.0 10.86 0.0 0.0 0.0 10.86" Properties=species:S:1:pos:R:3:initial_magmoms:R:1 pbc="T T T"
Si      -1.36485222      -1.17535608       1.14347112       0.00000000
Si       1.35014778       1.53964392       1.14347112       0.00000000
Si       1.35014778      -1.17535608      -1.57152888       0.00000000
Si      -0.00735222      -2.53285608       2.50097112       0.00000000
Si       2.70764778       0.18214392       2.50097112       0.00000000
Si      -2.70206574       0.48182562       2.46895584       0.00000000
Si       2.70764778      -2.53285608      -0.21402888       0.00000000
Si      -2.72235222      -2.53285608      -0.21402888       0.00000000
Si       0.11272680       2.62771818       2.67890136       0.00000000
Si      -0.00735222      -2.53285608      -2.92902888       0.00000000
