10
Lattice="10.86 0.0 0.0 0.0 10.86 0.0 0.0 0.0 10.86" Properties=species:S:1:pos:R:3:initial_magmoms:R:1 pbc="T T T"
Si      -1.33942896       1.29710754      -1.27094580       0.00000000
Si       1.59884178      -0.80567082      -1.47894738       0.00000000
Si       1.37557104       1.29710754       1.44405420       0.00000000
Si      -1.33942896      -1.41789246       1.44405420       0.00000000
Si       0.40801020      -2.62262484      -2.22366102       0.00000000
Si      -0.26311608       2.48561508      -2.69731992       0.00000000
Si       2.75335752      -2.47571076       0.05453892       0.00000000
Si       2.68442910       2.55445662      -0.06575730       0.00000000
Si      -2.69692896      -0.06039246      -2.62844580       0.00000000
Si      -2.69692896       2.65460754       0.08655420       0.00000000
