10
Lattice="16.28999089631971 0.0 0.0 0.0 16.28999089631971 0.0 0.0 0.0 34.185847837958455" Properties=species:S:1:pos:R:3:initial_magmoms:R:1 pbc="T T T"
Si      -1.33157718      -1.35723341      -1.35268348       0.00000000
Si       1.35449721      -1.35749687       1.35861472       0.00000000
Si      -1.35892809       1.35815106       1.35765752       0.00000000
Si       1.34925183       1.35372018      -1.39374754       0.00000000
Si       2.71661814      -2.71188005       0.00068372       0.00000000
Si      -2.71715734      -2.71202666      -0.00321347       0.00000000
Si      -0.00130320      -2.71349276       2.71599876       0.00000000
Si       2.71394658       0.00056689       2.71623806       0.00000000
Si      -2.71654809       0.00153289       2.71545178       0.00000000
Si       2.71451673       2.71774704       0.00003419       0.00000000
