10
Lattice="16.28999089631971 0.0 0.0 0.0 16.28999089631971 0.0 0.0 0.0 34.185847837958455" Properties=species:S:1:pos:R:3:initial_magmoms:R:1 pbc="T T T"
Si       1.35689184      -1.35654301       1.35663194       0.00000000
Si       1.35607734       1.35670450      -1.35731566       0.00000000
Si      -1.35780408       1.35777964       1.35693962       0.00000000
Si      -1.35944937      -1.35806376      -1.35762333       0.00000000
Si       2.71327869       0.00038770       2.71374249       0.00000000
Si       2.71349046       0.00181634      -2.71398179       0.00000000
Si       2.71425609      -2.71357095      -0.00030767       0.00000000
Si       0.00267156      -2.71244694      -2.71555434       0.00000000
Si      -0.00084708       2.71445972       2.71439202       0.00000000
Si      -2.71524978      -2.71405965      -0.00023930       0.00000000
