10
Lattice="16.28999089631971 0.0 0.0 0.0 16.28999089631971 0.0 0.0 0.0 34.185847837958455" Properties=species:S:1:pos:R:3:initial_magmoms:R:1 pbc="T T T"
Si      -1.35663120       1.35865116       1.35553800       0.00000000
Si      -1.35679410      -1.35832536      -1.35776008       0.00000000
Si       1.35879777       1.35702216      -1.35772589       0.00000000
Si       1.36037790      -1.36024758       1.36186238       0.00000000
Si      -2.70679364       0.00136836       2.68328288       0.00000000
Si      -2.71473339       2.71223613      -0.00116232       0.00000000
Si      -2.71389771      -0.00084708      -2.71483644       0.00000000
Si       0.00112401       2.71406061      -2.71480225       0.00000000
Si       0.00071676      -2.71513575      -2.71473388       0.00000000
Si      -2.71429681      -2.71650411      -0.00170929       0.00000000
