10
Lattice="16.28999089631971 0.0 0.0 0.0 16.28999089631971 0.0 0.0 0.0 34.185847837958455" Properties=species:S:1:pos:R:3:initial_magmoms:R:1 pbc="T T T"
Si       1.30979745      -1.42034139       1.32569373       0.00000000
Si       1.36138788       1.34662914      -1.35509358       0.00000000
Si      -1.32973641       1.30854312       1.42955040       0.00000000
Si      -1.35392706      -1.36363590      -1.35864891       0.00000000
Si      -2.32062453      -0.51241824       2.63952497       0.00000000
Si      -2.70793068       2.69972541       0.00475184       0.00000000
Si       0.00325800       2.70721881      -2.71387923       0.00000000
Si      -2.70408950      -2.72091870      -0.03090402       0.00000000
Si      -2.71202925      -0.01005093      -2.71534923       0.00000000
Si       2.72803743       2.70234810       0.02249430       0.00000000
