10
Lattice="16.28999089631971 0.0 0.0 0.0 16.28999089631971 0.0 0.0 0.0 34.185847837958455" Properties=species:S:1:pos:R:3:initial_magmoms:R:1 pbc="T T T"
Si       1.37608146       1.23323445      -1.48691428       0.00000000
Si       1.68728562      -1.35580041       1.02875529       0.00000000
Si      -0.12675249       1.30051215       2.04557972       0.00000000
Si      -1.37771046      -1.48884084      -1.57860078       0.00000000
Si       3.02557428       2.14677765      -0.03941630       0.00000000
Si      -2.74429485       2.61775413       0.00345277       0.00000000
Si       0.04052952       2.63384865      -2.88180021       0.00000000
Si      -2.68750791      -0.06849945      -2.90429451       0.00000000
Si       2.74603788      -0.09259236      -2.88655205       0.00000000
Si      -1.82159667       2.84537430       2.17859693       0.00000000
