10
Lattice="16.28999089631971 0.0 0.0 0.0 16.28999089631971 0.0 0.0 0.0 34.185847837958455" Properties=species:S:1:pos:R:3:initial_magmoms:R:1 pbc="T T T"
Si       1.58420250       0.73717137       1.51573297       0.00000000
Si      -0.58780836       1.91309760      -1.26340708       0.00000000
Si      -1.81262088      -1.17540495       1.02848181       0.00000000
Si       0.67487841      -1.39012344      -1.86846274       0.00000000
Si      -2.59413363       0.84962124      -1.88319685       0.00000000
Si      -2.71406875      -1.52347338      -1.17230175       0.00000000
Si       2.99560068       1.95165603       0.06816662       0.00000000
Si      -0.90310131      -3.10668219      -1.56646480       0.00000000
Si       2.90299203      -1.98413829      -1.45077982       0.00000000
Si      -2.74316758       0.19632708       2.75449204       0.00000000
