10
Lattice="16.28999089631971 0.0 0.0 0.0 16.28999089631971 0.0 0.0 0.0 34.185847837958455" Properties=species:S:1:pos:R:3:initial_magmoms:R:1 pbc="T T T"
Si      -1.58420250      -0.73717137      -1.51573297       0.00000000
Si       1.57877793      -1.59529599       0.61982395       0.00000000
Si      -0.31809483       1.10558601       2.03108491       0.00000000
Si       1.41139818       1.21448466      -1.44756635       0.00000000
Si       2.91877704       1.97903952       0.22070396       0.00000000
Si       3.58049313      -0.26608086       0.23516458       0.00000000
Si       1.76767677       2.09847780       2.38231051       0.00000000
Si      -2.17201086       1.17592623      -2.77914005       0.00000000
Si       2.38971042      -0.54806076      -2.89608990       0.00000000
Si       1.39367466      -3.46261869      -0.78866795       0.00000000
