10
Lattice="16.28999089631971 0.0 0.0 0.0 16.28999089631971 0.0 0.0 0.0 34.185847837958455" Properties=species:S:1:pos:R:3:initial_magmoms:R:1 pbc="T T T"
Si       0.59577417      -1.72120140       1.40958585       0.00000000
Si       1.92239919       1.23856128      -0.44903136       0.00000000
Si      -1.46851092       1.76114448       0.47730307       0.00000000
Si      -1.38821751      -1.08706428      -1.55367928       0.00000000
Si      -1.35690813       2.53158003      -1.83786639       0.00000000
Si      -2.98763487      -1.75975983       0.07801215       0.00000000
Si      -3.41021376       0.47021085       0.84832229       0.00000000
Si       0.98440470       2.68785000      -2.10072152       0.00000000
Si      -2.30083218       0.63925218      -2.86969841       0.00000000
Si       1.57408641      -3.48374682      -0.03893770       0.00000000
