10
Lattice="16.28999089631971 0.0 0.0 0.0 16.28999089631971 0.0 0.0 0.0 34.185847837958455" Properties=species:S:1:pos:R:3:initial_magmoms:R:1 pbc="T T T"
Si      -0.75844448       1.00219012      -1.97888309       0.00000000
Si      -2.20089859      -0.50328769       0.95713590       0.00000000
Si       1.28109610      -2.05856145      -0.49641297       0.00000000
Si       1.91616175       1.54285522      -0.41433271       0.00000000
Si       0.91031941       1.53306493       1.85082284       0.00000000
Si      -0.83446502      -2.05735599       2.24447860       0.00000000
Si       0.22946583      -0.26483793       3.43949960       0.00000000
Si      -0.84666786      -0.89848147      -3.49810302       0.00000000
Si      -0.89182048      -3.57411789      -0.52810327       0.00000000
Si       1.07647741      -2.24522856      -2.84720411       0.00000000
