10
Lattice="16.28999089631971 0.0 0.0 0.0 16.28999089631971 0.0 0.0 0.0 34.185847837958455" Properties=species:S:1:pos:R:3:initial_magmoms:R:1 pbc="T T T"
Si      -1.35638685      -1.35693071      -1.35711055       0.00000000
Si      -1.35570267       1.35595842       1.35919588       0.00000000
Si       1.35946566      -1.35367849       1.36049495       0.00000000
Si       1.35925389       1.35781548      -1.35673450       0.00000000
Si       2.69487099       0.01356143       2.72611777       0.00000000
Si      -2.71327869      -0.00038770      -2.71374249       0.00000000
Si       0.00097740      -2.71395865      -2.71405016       0.00000000
Si      -2.71412577       2.71407201       0.00064953       0.00000000
Si       2.71590138       2.71301316       0.00061535       0.00000000
Si       0.00169416       2.71514715      -2.71408435       0.00000000
