10
Lattice="16.28999089631971 0.0 0.0 0.0 16.28999089631971 0.0 0.0 0.0 34.185847837958455" Properties=species:S:1:pos:R:3:initial_magmoms:R:1 pbc="T T T"
Si       1.35570267      -1.35595842      -1.35919588       0.00000000
Si      -1.35842310       1.35811359      -1.35854635       0.00000000
Si      -1.34112312      -1.36189287       1.37710928       0.00000000
Si       1.35119034       1.35505107       1.38336529       0.00000000
Si       2.71516833      -2.70963692       0.00129906       0.00000000
Si      -2.71505430      -2.71224332       0.00181185       0.00000000
Si      -2.71339272       2.71479366       0.00348696       0.00000000
Si      -0.00068418      -2.71288913      -2.71630643       0.00000000
Si       2.71474479       2.71588509       0.00440998       0.00000000
Si       2.71495656       0.00185706      -2.71593039       0.00000000
