10
Lattice="16.28999089631971 0.0 0.0 0.0 16.28999089631971 0.0 0.0 0.0 34.185847837958455" Properties=species:S:1:pos:R:3:initial_magmoms:R:1 pbc="T T T"
Si       1.22847777      -0.57346339      -1.94445793       0.00000000
Si       1.22122872       2.07425457       0.16535704       0.00000000
Si       1.23720921      -1.35992830       1.61258153       0.00000000
Si      -2.74396905       0.44693244       0.07910610       0.00000000
Si       2.25069156       0.80586630       1.89252959       0.00000000
Si       2.96225505      -1.66712579      -0.72812478       0.00000000
Si      -0.63817704      -1.69628489       2.96767511       0.00000000
Si      -2.34271377       2.84183937       0.20135476       0.00000000
Si      -0.30283110       3.38054967       1.44606217       0.00000000
Si      -0.20846313      -1.83235526      -3.29384247       0.00000000
