10
Lattice="16.28999089631971 0.0 0.0 0.0 16.28999089631971 0.0 0.0 0.0 34.185847837958455" Properties=species:S:1:pos:R:3:initial_magmoms:R:1 pbc="T T T"
Si       1.19122254      -0.13942611      -1.96818292       0.00000000
Si      -2.19810744      -0.40168534      -0.75714858       0.00000000
Si      -0.24182505       2.31591672       0.55599894       0.00000000
Si       0.99917973      -1.79293539       1.38008345       0.00000000
Si      -0.32391036       1.79348013       2.83014537       0.00000000
Si       0.98994330      -2.52205757      -2.25271189       0.00000000
Si      -3.41145180       1.07577531       0.64279686       0.00000000
Si       3.38323752       0.51166890      -1.38052786       0.00000000
Si       0.36491229       1.66234563      -3.28167230       0.00000000
Si      -2.43814059      -2.76018479      -0.67564947       0.00000000
