10
Lattice="16.28999089631971 0.0 0.0 0.0 16.28999089631971 0.0 0.0 0.0 34.185847837958455" Properties=species:S:1:pos:R:3:initial_magmoms:R:1 pbc="T T T"
Si      -1.57797972       1.82599497       0.08269561       0.00000000
Si      -0.84232332      -1.72169729       1.47605826       0.00000000
Si       1.84010211       0.96113606       1.40124591       0.00000000
Si      -0.41497146      -1.22920172      -2.27069365       0.00000000
Si      -1.99915767      -0.28480526       2.88387328       0.00000000
Si      -1.80289575       2.29034142      -2.37889192       0.00000000
Si      -2.74411566      -2.57744357       0.22025001       0.00000000
Si      -3.38120127       0.95697886       1.40105447       0.00000000
Si       0.73057392       2.43043542       2.87731301       0.00000000
Si       3.23890812       2.19512637      -0.10252341       0.00000000
