10
Lattice="16.28999089631971 0.0 0.0 0.0 16.28999089631971 0.0 0.0 0.0 34.185847837958455" Properties=species:S:1:pos:R:3:initial_magmoms:R:1 pbc="T T T"
Si      -1.33828866      -1.34047152       1.35870361       0.00000000
Si      -1.33213104       1.40608764      -1.35386289       0.00000000
Si       1.30274388      -1.43751105      -1.36547583       0.00000000
Si       1.37803626       1.37437101       1.36000267       0.00000000
Si       0.60701427       2.06474121      -2.48132748       0.00000000
Si       2.24513667       0.19218942      -2.75530707       0.00000000
Si      -2.70355356      -2.70449838      -0.03507812       0.00000000
Si      -2.69747739       0.01537776       2.71762600       0.00000000
Si       0.01721853      -2.70094716       2.71759182       0.00000000
Si      -2.68602552       2.73611727       0.01843302       0.00000000
