10
Lattice="16.28999089631971 0.0 0.0 0.0 16.28999089631971 0.0 0.0 0.0 34.185847837958455" Properties=species:S:1:pos:R:3:initial_magmoms:R:1 pbc="T T T"
Si       1.25062077      -1.36681245       1.47633376       0.00000000
Si       1.73863659       1.02890898      -1.32266969       0.00000000
Si      -1.44477639       1.33224507       1.47313738       0.00000000
Si      -1.19687028      -1.90200411      -1.23426504       0.00000000
Si      -2.68408931       2.54972709      -0.07543795       0.00000000
Si       2.45495676      -2.77544133      -0.00269043       0.00000000
Si       2.63199648       2.66419692       0.16000011       0.00000000
Si       3.51271533      -0.82691298      -1.34232657       0.00000000
Si       2.61044481      -0.00992061       2.84696139       0.00000000
Si      -0.10696666       2.71081890       2.84241467       0.00000000
