10
Lattice="16.28999089631971 0.0 0.0 0.0 16.28999089631971 0.0 0.0 0.0 34.185847837958455" Properties=species:S:1:pos:R:3:initial_magmoms:R:1 pbc="T T T"
Si      -0.53774919       0.51660477      -2.18402397       0.00000000
Si      -1.85688081      -0.84607002       1.24282001       0.00000000
Si       0.78377706       1.92026520       1.20462073       0.00000000
Si       1.69342695      -1.75316238      -0.04151087       0.00000000
Si      -2.79222003       0.37370889      -1.64364798       0.00000000
Si      -0.52670457      -2.11620132       2.62943638       0.00000000
Si       1.01727792       2.35289502      -2.28596623       0.00000000
Si       2.18836602       0.62674146       2.59472747       0.00000000
Si      -2.68620471      -2.74418082       0.13177489       0.00000000
Si       0.76448970      -3.60712728       1.12937080       0.00000000
