10
Lattice="16.28999089631971 0.0 0.0 0.0 16.28999089631971 0.0 0.0 0.0 34.185847837958455" Properties=species:S:1:pos:R:3:initial_magmoms:R:1 pbc="T T T"
Si       1.35638685       1.35619137       1.35724729       0.00000000
Si      -1.35685926       1.35658233      -1.35707636       0.00000000
Si      -1.35897696      -1.35656604       1.35676869       0.00000000
Si       1.35808101      -1.35837423      -1.35690543       0.00000000
Si      -2.71454931       0.00078192       2.71011879       0.00000000
Si       0.00317655       2.71252935       2.71616969       0.00000000
Si      -0.00066789       2.71394658      -2.71497318       0.00000000
Si      -2.71498914      -0.00089595      -2.71405016       0.00000000
Si      -2.71482624       2.71443528      -0.00034186       0.00000000
Si       2.71384884       0.00094482      -2.71562271       0.00000000
