10
Lattice="16.28999089631971 0.0 0.0 0.0 16.28999089631971 0.0 0.0 0.0 34.185847837958455" Properties=species:S:1:pos:R:3:initial_magmoms:R:1 pbc="T T T"
Si      -1.35713619      -1.34037378      -1.37970740       0.00000000
Si      -1.36995642       1.32582681       1.39963776       0.00000000
Si       1.36058967       1.37137365      -1.37365651       0.00000000
Si       1.35045729      -1.41121899       1.43799431       0.00000000
Si       2.09590398       0.49617711       2.55744471       0.00000000
Si       0.27953640       2.23937001       2.84713574       0.00000000
Si      -2.69781948      -2.69071704      -0.01893897       0.00000000
Si      -0.00156384      -2.69772174      -2.73305750       0.00000000
Si       2.72906370      -2.70249471       0.00847810       0.00000000
Si      -2.70550836       2.72644101       0.00475184       0.00000000
