10
Lattice="16.28999089631971 0.0 0.0 0.0 16.28999089631971 0.0 0.0 0.0 34.185847837958455" Properties=species:S:1:pos:R:3:initial_magmoms:R:1 pbc="T T T"
Si       1.35321030      -1.35633798      -1.35892240       0.00000000
Si      -1.36171368       1.35887922      -1.35772589       0.00000000
Si       1.36945143       1.35153243       1.36223843       0.00000000
Si      -1.36058967      -1.37137365       1.37365651       0.00000000
Si      -0.06527403       2.51760321       2.77688379       0.00000000
Si       2.71182888       0.00210141      -2.71610131       0.00000000
Si      -0.00317655      -2.71252935      -2.71616969       0.00000000
Si       2.71502172      -2.71396287      -0.00037604       0.00000000
Si      -2.71772586      -2.71174743      -0.00605090       0.00000000
Si       2.71277370       2.71761183      -0.00232464       0.00000000
