10
Lattice="16.28999089631971 0.0 0.0 0.0 16.28999089631971 0.0 0.0 0.0 34.185847837958455" Properties=species:S:1:pos:R:3:initial_magmoms:R:1 pbc="T T T"
Si      -0.74544669      -1.90739610      -1.11945040       0.00000000
Si       1.92911067       0.83649150      -1.10314374       0.00000000
Si      -1.81636758       1.74319290       0.28969104       0.00000000
Si      -2.09590398      -0.49617711      -2.55744471       0.00000000
Si       0.63413712       2.22672897      -2.56886279       0.00000000
Si      -0.80058834       3.39279975      -1.15421743       0.00000000
Si      -3.46586040       0.82964970      -1.15780694       0.00000000
Si      -3.15465624      -1.75938516       1.35786263       0.00000000
Si      -1.89475506      -3.38151078       0.30254492       0.00000000
Si       1.43314533      -0.38434626       3.68492878       0.00000000
