10
Lattice="16.28999089631971 0.0 0.0 0.0 16.28999089631971 0.0 0.0 0.0 34.185847837958455" Properties=species:S:1:pos:R:3:initial_magmoms:R:1 pbc="T T T"
Si       1.43472546      -1.16607078      -1.41464536       0.00000000
Si       1.48221081       1.21111263       1.39632174       0.00000000
Si      -1.01577924      -1.64960685       1.44390846       0.00000000
Si      -1.29536451       1.53489267      -1.39454407       0.00000000
Si      -1.96398756       0.70876161       2.48497067       0.00000000
Si       0.80058834      -3.39279975       1.15421743       0.00000000
Si      -2.66527206      -2.56315005      -0.00358952       0.00000000
Si       2.72969901      -2.55630825       0.05107369       0.00000000
Si       0.06527403      -2.51760321      -2.77688379       0.00000000
Si       2.61913878       2.78842446      -0.07267915       0.00000000
