10
Lattice="16.28999089631971 0.0 0.0 0.0 16.28999089631971 0.0 0.0 0.0 34.185847837958455" Properties=species:S:1:pos:R:3:initial_magmoms:R:1 pbc="T T T"
Si      -0.94918572      -1.23645987      -1.78826270       0.00000000
Si       1.55014011       1.18007824      -1.38421994       0.00000000
Si      -1.56960666       1.52574651       1.00851726       0.00000000
Si       0.96024663      -1.76852385       1.42756762       0.00000000
Si       0.94578111      -2.43607176      -2.53809551       0.00000000
Si      -0.44935965       1.86358970       3.13898049       0.00000000
Si       2.32073856      -0.51650703      -2.92576324       0.00000000
Si      -3.67973181       0.47159550       1.11555321       0.00000000
Si      -0.76843188      -3.43166769       1.73862482       0.00000000
Si      -1.88718021       0.21282885      -3.43995286       0.00000000
