10
Lattice="16.28999089631971 0.0 0.0 0.0 16.28999089631971 0.0 0.0 0.0 34.185847837958455" Properties=species:S:1:pos:R:3:initial_magmoms:R:1 pbc="T T T"
Si       1.35225312      -1.35688368      -1.36217005       0.00000000
Si      -1.37829690      -1.35000930       1.35471754       0.00000000
Si      -1.36303317       1.36050402      -1.36114448       0.00000000
Si       1.37450689       1.34669987       1.38473273       0.00000000
Si      -0.15413598       2.53242617       2.74656092       0.00000000
Si       2.71237364      -2.71108767      -0.00198278       0.00000000
Si      -2.71780731      -2.71152750      -0.00495695       0.00000000
Si       2.71151027       0.00287884      -2.71825502       0.00000000
Si      -0.00341958      -2.71190217      -2.71846014       0.00000000
Si       2.71234106       2.71876748      -0.00540137       0.00000000
