10
Lattice="16.28999089631971 0.0 0.0 0.0 16.28999089631971 0.0 0.0 0.0 34.185847837958455" Properties=species:S:1:pos:R:3:initial_magmoms:R:1 pbc="T T T"
Si       1.49666004      -1.37308084      -1.09999864       0.00000000
Si       0.37755333       0.23982138       2.27072784       0.00000000
Si      -2.19201498      -0.65109501      -0.58765505       0.00000000
Si       0.51911343       2.33183205      -0.36876295       0.00000000
Si       0.05528826       2.63309931       2.08800438       0.00000000
Si       2.01665313       1.79949114      -2.18738270       0.00000000
Si      -1.47325131       2.96838009      -1.53361218       0.00000000
Si      -3.38323752      -0.51166890       1.38052786       0.00000000
Si       3.48925025      -0.07323984      -1.24392114       0.00000000
Si      -3.01832523       1.15067673      -1.90114443       0.00000000
