10
Lattice="16.28999089631971 0.0 0.0 0.0 16.28999089631971 0.0 0.0 0.0 34.185847837958455" Properties=species:S:1:pos:R:3:initial_magmoms:R:1 pbc="T T T"
Si       2.03077656       0.77040297      -0.93946181       0.00000000
Si      -2.05425045       1.16898669       0.40790576       0.00000000
Si      -0.86467320      -1.49310719      -1.74905151       0.00000000
Si       1.09581201      -0.55439757       2.29951234       0.00000000
Si       1.22083776       1.52360370      -3.09976930       0.00000000
Si      -0.37278036      -0.22654503      -3.68024532       0.00000000
Si       0.62796321      -3.33336473      -1.51696366       0.00000000
Si       2.76180660       2.45410479       0.63818176       0.00000000
Si       2.93397561      -2.00180154       1.43864384       0.00000000
Si      -3.94599186      -0.45918252       0.02314383       0.00000000
