10
Lattice="16.28999089631971 0.0 0.0 0.0 16.28999089631971 0.0 0.0 0.0 34.185847837958455" Properties=species:S:1:pos:R:3:initial_magmoms:R:1 pbc="T T T"
Si       1.35689184      -1.35718506       1.35697380       0.00000000
Si      -1.35808101       1.35837423       1.35690543       0.00000000
Si       1.35576783       1.35931905      -1.35871728       0.00000000
Si      -1.35953082      -1.35720135      -1.35776008       0.00000000
Si      -2.71324611       0.00197109      -2.71466551       0.00000000
Si       2.71344159      -0.00065160       2.71466551       0.00000000
Si      -0.00169416       2.71456560       2.71415272       0.00000000
Si       2.71469592      -2.71423980      -0.00027349       0.00000000
Si      -2.71516833      -2.71451673      -0.00010256       0.00000000
Si      -2.71494027       2.71495656      -0.00017093       0.00000000
