10
Lattice="16.28999089631971 0.0 0.0 0.0 16.28999089631971 0.0 0.0 0.0 34.185847837958455" Properties=species:S:1:pos:R:3:initial_magmoms:R:1 pbc="T T T"
Si       1.35799534       1.35042471       1.35940100       0.00000000
Si       1.35389678      -1.35935163      -1.36070006       0.00000000
Si      -1.36234899       1.35744570      -1.36073425       0.00000000
Si      -1.37176461      -1.36449927       1.37751951       0.00000000
Si      -0.08205273       2.62703943       2.66971109       0.00000000
Si       2.71199897      -2.71293660      -0.00399975       0.00000000
Si       2.71175462       0.00034209      -2.71699015       0.00000000
Si       2.71302524       2.71603170      -0.00061535       0.00000000
Si      -2.71490769      -2.71598283      -0.00164092       0.00000000
Si      -0.00247838      -2.71505430      -2.71695596       0.00000000
