10
Lattice="16.28999089631971 0.0 0.0 0.0 16.28999089631971 0.0 0.0 0.0 34.185847837958455" Properties=species:S:1:pos:R:3:initial_magmoms:R:1 pbc="T T T"
Si       1.45958400      -1.27742922      -1.26306523       0.00000000
Si      -1.24349552       1.47196440      -1.28313233       0.00000000
Si       1.80357993       0.92626569       1.15438835       0.00000000
Si      -1.77225589      -0.92269818       1.25027971       0.00000000
Si       0.10552662       1.51884702       2.77158498       0.00000000
Si      -2.60490143       0.10995750      -2.60742444       0.00000000
Si       0.10766061      -2.60192025      -2.61091140       0.00000000
Si      -2.60369553       2.72352510       0.10713851       0.00000000
Si      -3.42655982       0.92708019       1.32678768       0.00000000
Si       2.82367602       0.11034846      -2.60455283       0.00000000
