10
Lattice="16.28999089631971 0.0 0.0 0.0 16.28999089631971 0.0 0.0 0.0 34.185847837958455" Properties=species:S:1:pos:R:3:initial_magmoms:R:1 pbc="T T T"
Si       0.03587058       1.97307738       1.21913639       0.00000000
Si       1.63994688      -1.16657577      -1.16190925       0.00000000
Si      -1.13896422       0.51517125      -2.03614442       0.00000000
Si      -0.81762768      -1.76435361       1.56557596       0.00000000
Si      -2.49857649      -1.34195391      -1.43023412       0.00000000
Si      -1.36611198      -3.09918879      -0.27499111       0.00000000
Si       1.46438955       1.10394072       2.98076830       0.00000000
Si       0.76150863      -3.36315195      -1.32497583       0.00000000
Si      -2.31296823       2.70746316       1.16990874       0.00000000
Si       3.61581378      -1.18574910       0.04273233       0.00000000
