10
Lattice="16.28999089631971 0.0 0.0 0.0 16.28999089631971 0.0 0.0 0.0 34.185847837958455" Properties=species:S:1:pos:R:3:initial_magmoms:R:1 pbc="T T T"
Si      -1.34403903      -1.32395346       1.37732807       0.00000000
Si      -1.55418003       1.19149947      -1.32584757       0.00000000
Si       1.36748590       1.39310451       1.36813207       0.00000000
Si       1.25383545      -1.47751929      -1.49346429       0.00000000
Si       0.29315062       2.23249563      -2.54007418       0.00000000
Si       2.19083300       0.45193347      -2.56359577       0.00000000
Si      -2.67095727      -2.69097768      -0.00569878       0.00000000
Si       2.72040461      -2.67533928      -0.00217080       0.00000000
Si       0.00818635      -2.67950952       2.72876376       0.00000000
Si      -2.70428661       0.03093471       2.72876376       0.00000000
