10
Lattice="16.28999089631971 0.0 0.0 0.0 16.28999089631971 0.0 0.0 0.0 34.185847837958455" Properties=species:S:1:pos:R:3:initial_magmoms:R:1 pbc="T T T"
Si       1.33951041       1.36151820       1.35967449       0.00000000
Si      -1.35842310       1.35519768      -1.35615334       0.00000000
Si       1.35480672      -1.35814617      -1.35714473       0.00000000
Si      -1.34332227      -1.36607940       1.36456306       0.00000000
Si      -0.15890895       2.58841584       2.70652927       0.00000000
Si       2.63510298      -0.08855244       2.67330061       0.00000000
Si       2.71438773      -0.00037467      -2.71350319       0.00000000
Si      -0.00089595       2.71463590      -2.71357156       0.00000000
Si      -0.00094482      -2.71551042      -2.71377668       0.00000000
Si       2.71780731       2.71152750       0.00495695       0.00000000
