10
Lattice="16.28999089631971 0.0 0.0 0.0 16.28999089631971 0.0 0.0 0.0 34.185847837958455" Properties=species:S:1:pos:R:3:initial_magmoms:R:1 pbc="T T T"
Si      -1.01805984       1.66594572       1.26180035       0.00000000
Si      -1.48221081      -1.21111263      -1.39632174       0.00000000
Si       1.13692797       1.57731183      -1.46900089       0.00000000
Si       1.73385873      -1.28203929       1.46554812       0.00000000
Si       3.32685783       0.75888594       1.18823236       0.00000000
Si      -1.19529504       0.07780104       3.41974901       0.00000000
Si      -3.44619837      -0.50235102       1.08864893       0.00000000
Si      -0.04748535      -2.37718341      -2.81096710       0.00000000
Si       2.55730194       2.73170498       0.02259686       0.00000000
Si       0.61838469       3.47192747       1.29646482       0.00000000
