10
Lattice="16.28999089631971 0.0 0.0 0.0 16.28999089631971 0.0 0.0 0.0 34.185847837958455" Properties=species:S:1:pos:R:3:initial_magmoms:R:1 pbc="T T T"
Si       1.21021668      -1.38815235      -1.47665852       0.00000000
Si       1.59299910       2.04092523      -0.27731575       0.00000000
Si      -1.73385873       1.28203929      -1.46554812       0.00000000
Si       0.02989215      -1.58477265       2.31725480       0.00000000
Si       2.19708117       0.18238284      -2.96777767       0.00000000
Si      -2.92915377       1.35984033       1.95420090       0.00000000
Si      -0.48637053      -2.48538159      -2.81079617       0.00000000
Si       1.98702162       2.82146058       1.86965925       0.00000000
Si      -2.75191857       2.94798501      -0.20374777       0.00000000
Si       3.57616555       1.34926812      -1.49525563       0.00000000
