10
Lattice="16.28999089631971 0.0 0.0 0.0 16.28999089631971 0.0 0.0 0.0 34.185847837958455" Properties=species:S:1:pos:R:3:initial_magmoms:R:1 pbc="T T T"
Si       1.44004807      -1.27661472      -1.31031009       0.00000000
Si       1.37908438       1.16688528       1.47252203       0.00000000
Si      -1.29559257       1.45007064      -1.31362612       0.00000000
Si      -0.98686449      -1.57053519       1.49111914       0.00000000
Si      -0.60408207       1.85854239       2.69046191       0.00000000
Si       2.13559361      -0.71110737       2.76625198       0.00000000
Si      -2.19708117      -0.18238284       2.96777767       0.00000000
Si       0.08205273      -2.62703943      -2.66971109       0.00000000
Si      -2.63510298       0.08855244      -2.67330061       0.00000000
Si      -2.68345170      -2.66776443       0.15698150       0.00000000
