10
Lattice="16.28999089631971 0.0 0.0 0.0 16.28999089631971 0.0 0.0 0.0 34.185847837958455" Properties=species:S:1:pos:R:3:initial_magmoms:R:1 pbc="T T T"
Si      -1.93495389       1.22204322       0.46000503       0.00000000
Si      -0.69330240      -2.22684300      -0.21885792       0.00000000
Si       1.48686975      -0.21466962       1.86487323       0.00000000
Si       1.38759849       1.01957481      -1.66604823       0.00000000
Si       1.48033746      -3.09347100      -0.55603313       0.00000000
Si      -3.36478814      -0.61555023       1.00838052       0.00000000
Si       2.19463767       2.88645768      -0.45371483       0.00000000
Si      -1.89219101      -2.48828121       1.95184207       0.00000000
Si       2.80500768       1.80287946       1.67647491       0.00000000
Si      -2.11777982       0.95487093      -2.95929957       0.00000000
