10
Lattice="16.28999089631971 0.0 0.0 0.0 16.28999089631971 0.0 0.0 0.0 34.185847837958455" Properties=species:S:1:pos:R:3:initial_magmoms:R:1 pbc="T T T"
Si      -0.39402252      -0.78053535      -2.14697500       0.00000000
Si       0.97913230       1.99817117      -0.70733977       0.00000000
Si      -1.88473671       0.32883713       1.42937947       0.00000000
Si       1.83873442      -1.14968304       1.04950612       0.00000000
Si       2.23312184       2.73931730       1.11473275       0.00000000
Si      -1.16357841       1.19228369      -3.31261051       0.00000000
Si      -0.95835699       1.17803808       3.42935524       0.00000000
Si      -3.15079551       2.07659123       0.32558620       0.00000000
Si       1.86202423      -3.36445515       0.30661304       0.00000000
Si      -1.98702162      -2.82146058      -1.86965925       0.00000000
