10
Lattice="16.28999089631971 0.0 0.0 0.0 16.28999089631971 0.0 0.0 0.0 34.185847837958455" Properties=species:S:1:pos:R:3:initial_magmoms:R:1 pbc="T T T"
Si      -0.63247554       1.75538826      -1.37782718       0.00000000
Si      -1.39375611      -1.60710624       0.99046712       0.00000000
Si       1.68323660       0.68035185       1.57743846       0.00000000
Si       1.82945727      -0.69520833      -1.39850963       0.00000000
Si       2.71445876       1.29506707      -0.44653579       0.00000000
Si       2.13586402      -1.59392763       2.05569874       0.00000000
Si       2.73925214      -2.44162665      -0.09995947       0.00000000
Si       1.36011467       3.05522927      -1.52174968       0.00000000
Si       0.03476286      -2.47624290       2.75209903       0.00000000
Si      -2.12913558       3.12846911      -0.27782854       0.00000000
