10
Lattice="16.28999089631971 0.0 0.0 0.0 16.28999089631971 0.0 0.0 0.0 34.185847837958455" Properties=species:S:1:pos:R:3:initial_magmoms:R:1 pbc="T T T"
Si       0.80703918       1.86688287       1.21233340       0.00000000
Si      -1.38759849      -1.01957481       1.66604823       0.00000000
Si      -1.31105178       1.01480184      -1.79622801       0.00000000
Si       1.93205916      -1.35024552      -0.81146992       0.00000000
Si       0.38700153       0.42222051      -3.41342463       0.00000000
Si       1.41740919       0.78330465       3.34252314       0.00000000
Si      -3.50537831      -0.06470388      -1.29325135       0.00000000
Si       0.09927126      -1.23424443       3.53092145       0.00000000
Si      -3.32255238       0.20246841       2.12605325       0.00000000
Si      -0.84014046       3.59777682       1.61880336       0.00000000
