10
Lattice="16.28999089631971 0.0 0.0 0.0 16.28999089631971 0.0 0.0 0.0 34.185847837958455" Properties=species:S:1:pos:R:3:initial_magmoms:R:1 pbc="T T T"
Si       0.90144788       0.34806843       2.20078356       0.00000000
Si       1.81096744      -1.58320881      -0.39416305       0.00000000
Si      -2.32467978      -0.79987158      -0.17800581       0.00000000
Si       0.11993513       2.37309462      -0.71089510       0.00000000
Si       2.71406875       1.52347338       1.17230175       0.00000000
Si      -1.83990567      -1.58752566      -2.38179772       0.00000000
Si      -3.05023638       1.51666416       0.25307797       0.00000000
Si       3.38894717       0.13334994      -0.69616099       0.00000000
Si      -1.50034972       3.32443062       0.70761326       0.00000000
Si      -2.32109598      -2.61141732       1.46797531       0.00000000
