10
Lattice="16.28999089631971 0.0 0.0 0.0 16.28999089631971 0.0 0.0 0.0 34.185847837958455" Properties=species:S:1:pos:R:3:initial_magmoms:R:1 pbc="T T T"
Si       0.89335989       1.63528794       1.48266980       0.00000000
Si      -1.73863659      -1.02890898       1.32266969       0.00000000
Si      -0.90391581       1.52156745      -1.76648630       0.00000000
Si       1.77407874      -1.85582196      -0.01965687       0.00000000
Si       2.47811625       2.49759909       0.02263104       0.00000000
Si       0.96291819       2.97338112      -1.71961748       0.00000000
Si       2.23684506       0.33067071       2.82806144       0.00000000
Si       0.22532328      -2.45819358      -2.74779161       0.00000000
Si      -0.48801582      -2.39572143       2.79900345       0.00000000
Si      -2.86704326       2.45262240      -0.39170166       0.00000000
