10
Lattice="16.28999089631971 0.0 0.0 0.0 16.28999089631971 0.0 0.0 0.0 34.185847837958455" Properties=species:S:1:pos:R:3:initial_magmoms:R:1 pbc="T T T"
Si      -1.95559821       0.57897918       1.17356663       0.00000000
Si       0.92269818       0.22762017       2.17514416       0.00000000
Si      -1.27294947      -1.37771046      -1.47819689       0.00000000
Si       1.37709144       1.32098868      -1.47378691       0.00000000
Si       2.61754236      -1.31724198       2.04212695       0.00000000
Si      -2.71210744       2.45697183      -0.12016332       0.00000000
Si      -3.16494175      -1.56587625       1.14252586       0.00000000
Si       2.37715083       2.89909872      -0.02864776       0.00000000
Si       2.74429485      -2.61775413      -0.00345277       0.00000000
Si      -2.26383759      -3.19867182      -0.26822231       0.00000000
