10
Lattice="16.28999089631971 0.0 0.0 0.0 16.28999089631971 0.0 0.0 0.0 34.185847837958455" Properties=species:S:1:pos:R:3:initial_magmoms:R:1 pbc="T T T"
Si      -0.51062634      -0.40811337       2.29209401       0.00000000
Si      -2.12301706      -0.02692737      -1.14437190       0.00000000
Si       0.46946151       2.32974693      -0.46178269       0.00000000
Si       1.64717964      -1.73089395      -0.40646996       0.00000000
Si      -3.21913925       1.83018150      -0.14850341       0.00000000
Si       1.56970440      -1.11205314       3.22400074       0.00000000
Si      -1.61185803       3.34202382      -0.97973276       0.00000000
Si      -2.39656037      -1.95994764       2.35420973       0.00000000
Si      -1.61357663       1.36319607       3.33489969       0.00000000
Si       2.25754965      -2.81447217       1.72371978       0.00000000
