10
Lattice="16.28999089631971 0.0 0.0 0.0 16.28999089631971 0.0 0.0 0.0 34.383488856416385" Properties=species:S:1:pos:R:3:initial_magmoms:R:1 pbc="T T T"
Si      -1.67348799      -0.85163648      -1.61929131       0.00000000
Si       2.04555159      -1.55692394      -0.34215029       0.00000000
Si       1.08471852       1.78852797      -1.53790555       0.00000000
Si      -0.87884550      -1.81023344       2.31153448       0.00000000
Si      -1.52409240       2.68819209       1.69823585       0.00000000
Si      -0.29999664      -2.23698257      -3.07907753       0.00000000
Si       2.43872703       0.49125590      -3.08028095       0.00000000
Si       1.26952857      -3.36636827      -1.67970314       0.00000000
Si      -3.67677518      -1.65601601      -0.48993061       0.00000000
Si       2.38588227       3.36499272      -0.13708705       0.00000000
