10
Lattice="16.28999089631971 0.0 0.0 0.0 16.28999089631971 0.0 0.0 0.0 34.383488856416385" Properties=species:S:1:pos:R:3:initial_magmoms:R:1 pbc="T T T"
Si      -0.36515664      -0.22954239       2.29798738       0.00000000
Si       0.81979425      -2.22455330      -0.49446923       0.00000000
Si      -2.12517711       0.58142268      -1.06220971       0.00000000
Si       1.77481179       1.60823025      -0.63963640       0.00000000
Si      -1.11570210       1.40486589      -2.96485552       0.00000000
Si      -1.61129277       1.70023617       2.63804027       0.00000000
Si       1.89656325       0.23908833       3.01577749       0.00000000
Si       3.07890774      -1.68659167      -0.79553123       0.00000000
Si       0.47798118       2.99537262      -2.05881570       0.00000000
Si      -1.83412368      -2.06367992       2.68817143       0.00000000
