10
Lattice="16.28999089631971 0.0 0.0 0.0 16.28999089631971 0.0 0.0 0.0 34.383488856416385" Properties=species:S:1:pos:R:3:initial_magmoms:R:1 pbc="T T T"
Si      -1.29683061       1.38714237      -1.41917930       0.00000000
Si       1.22596911       1.32667389       1.56293674       0.00000000
Si      -1.77481179      -1.60823025       0.63963640       0.00000000
Si       1.71955611      -0.53307396      -1.84137439       0.00000000
Si       1.30409595      -3.29482192      -0.15589483       0.00000000
Si      -0.09557343       1.17421578       3.46960542       0.00000000
Si      -2.89051389      -0.20336436      -2.32521912       0.00000000
Si      -2.53713492       2.84126922       0.52269809       0.00000000
Si       0.03595203       2.31695928      -3.10434941       0.00000000
Si       0.12175146      -1.36914192       3.65541389       0.00000000
