10
Lattice="16.28999089631971 0.0 0.0 0.0 16.28999089631971 0.0 0.0 0.0 34.383488856416385" Properties=species:S:1:pos:R:3:initial_magmoms:R:1 pbc="T T T"
Si      -2.25911349      -0.53796163       0.30106200       0.00000000
Si       1.39663944      -1.39380565      -1.35189077       0.00000000
Si       0.30152790       0.44916580       2.33230212       0.00000000
Si       0.41546016       2.76174796      -1.68547957       0.00000000
Si       2.45169387       1.36142698       2.15766828       0.00000000
Si      -1.30409595       3.29482192       0.15589483       0.00000000
Si      -3.07890774       1.68659167       0.79553123       0.00000000
Si       3.29703084      -1.55225848       0.14678320       0.00000000
Si       0.71361603      -1.66241146       3.32722331       0.00000000
Si      -2.61550611      -2.30381392       1.96611776       0.00000000
