10
Lattice="16.28999089631971 0.0 0.0 0.0 16.28999089631971 0.0 0.0 0.0 34.383488856416385" Properties=species:S:1:pos:R:3:initial_magmoms:R:1 pbc="T T T"
Si      -1.47124764      -1.01727792      -1.52131348       0.00000000
Si       1.24204734      -1.46041479       1.46051859       0.00000000
Si      -1.46800593       1.25920071       1.45730373       0.00000000
Si       1.29603240       1.42571709      -1.54321578       0.00000000
Si       0.06273279      -1.92793779      -3.11113813       0.00000000
Si       2.70935280       2.66849748      -0.00426356       0.00000000
Si       2.60478729      -0.10189395       2.83292600       0.00000000
Si      -2.79633977      -2.64019849      -0.21137262       0.00000000
Si      -0.11416032       2.61420291       2.83041600       0.00000000
Si      -0.68000976       2.31526512      -3.04398714       0.00000000
