10
Lattice="16.28999089631971 0.0 0.0 0.0 16.28999089631971 0.0 0.0 0.0 34.383488856416385" Properties=species:S:1:pos:R:3:initial_magmoms:R:1 pbc="T T T"
Si       1.37578824       1.33665966       1.36014281       0.00000000
Si       1.35858600      -1.35430173      -1.36052103       0.00000000
Si      -1.35757602       1.35922131      -1.35986774       0.00000000
Si      -1.35216774      -1.36762695       1.38555222       0.00000000
Si      -2.61571788       0.06493194       2.79620441       0.00000000
Si       0.08993709       2.83727817       2.57405256       0.00000000
Si       2.70954828      -2.71446786      -0.00223493       0.00000000
Si       2.71259451       2.71604799       0.00003438       0.00000000
Si       2.71349046       0.00167787      -2.71688166       0.00000000
Si      -2.71456560      -2.71586880      -0.00343835       0.00000000
