10
Lattice="16.28999089631971 0.0 0.0 0.0 16.28999089631971 0.0 0.0 0.0 34.383488856416385" Properties=species:S:1:pos:R:3:initial_magmoms:R:1 pbc="T T T"
Si       1.86419502      -1.14952014       0.86357619       0.00000000
Si       1.08209583       1.97731278       0.69884480       0.00000000
Si      -1.91629044      -0.88466103       1.06396327       0.00000000
Si      -0.56159775      -0.36266427      -2.33041103       0.00000000
Si       2.15544393       2.43796140      -1.33614312       0.00000000
Si       1.14201045      -3.32558721       0.72803640       0.00000000
Si      -1.11522969      -2.65341294      -2.25019430       0.00000000
Si       1.94105124      -0.42555996       3.11483638       0.00000000
Si      -2.43677223      -2.80587105      -0.34352563       0.00000000
Si      -1.97094339       1.34125344      -3.10710009       0.00000000
