10
Lattice="16.28999089631971 0.0 0.0 0.0 16.28999089631971 0.0 0.0 0.0 34.383488856416385" Properties=species:S:1:pos:R:3:initial_magmoms:R:1 pbc="T T T"
Si      -1.37253024      -1.33661079       1.34697393       0.00000000
Si      -1.35106002       1.35749457      -1.36220582       0.00000000
Si       1.36506942      -1.35959598      -1.35921446       0.00000000
Si       1.37987703       1.35896067       1.39009085       0.00000000
Si       0.09777258      -2.59665858       2.57377750       0.00000000
Si      -2.70690930       2.71026504      -0.00051575       0.00000000
Si      -2.70793557      -0.00252495      -2.71657221       0.00000000
Si      -2.71164969      -2.71621089       0.00037822       0.00000000
Si       0.00651600       2.71236645      -2.71722549       0.00000000
Si       2.72070693       2.71345788      -0.00140972       0.00000000
