10
Lattice="16.28999089631971 0.0 0.0 0.0 16.28999089631971 0.0 0.0 0.0 34.383488856416385" Properties=species:S:1:pos:R:3:initial_magmoms:R:1 pbc="T T T"
Si       1.40934564      -1.70391771       0.77668906       0.00000000
Si      -2.29996881      -0.21053196      -0.42422372       0.00000000
Si       0.39534201       2.18318580       0.77380085       0.00000000
Si       2.02126320      -0.60924600      -1.32146137       0.00000000
Si      -2.85377994       1.47616722       1.17643173       0.00000000
Si       3.33062082       1.21380048      -0.46909420       0.00000000
Si      -1.60590078       3.24143307       0.14386060       0.00000000
Si      -2.69400762       0.62227800      -2.62731262       0.00000000
Si      -2.90739033      -2.48007105      -0.18333287       0.00000000
Si       2.14752699       3.19888359      -0.34607001       0.00000000
