10
Lattice="16.28999089631971 0.0 0.0 0.0 16.28999089631971 0.0 0.0 0.0 34.383488856416385" Properties=species:S:1:pos:R:3:initial_magmoms:R:1 pbc="T T T"
Si      -1.30691412      -1.37585340       1.32390638       0.00000000
Si      -1.24651080       0.29874231      -2.00378940       0.00000000
Si       1.57086099       1.44004319       1.25851926       0.00000000
Si      -0.78605766       2.56327127      -1.97611068       0.00000000
Si      -2.34266490       0.32395923       2.57988779       0.00000000
Si       0.32387778      -0.66191157      -3.43589690       0.00000000
Si       1.63738935       2.62026998      -1.75062363       0.00000000
Si       0.38970567      -2.38985703       2.60955044       0.00000000
Si       2.18217582       0.69565535      -3.04244641       0.00000000
Si      -2.09600172      -3.25058805      -0.13064465       0.00000000
