10
Lattice="16.28999089631971 0.0 0.0 0.0 16.28999089631971 0.0 0.0 0.0 34.383488856416385" Properties=species:S:1:pos:R:3:initial_magmoms:R:1 pbc="T T T"
Si       1.35757602       1.35487188      -1.35501967       0.00000000
Si      -1.35584928       1.35277047       1.36169007       0.00000000
Si       1.35106002      -1.35749457       1.36220582       0.00000000
Si      -1.35687555      -1.36001952      -1.35436638       0.00000000
Si      -0.02147022      -2.69410536       2.70917975       0.00000000
Si      -2.67817863      -0.00716760       2.72764370       0.00000000
Si       0.00032580       2.71275741      -2.71223988       0.00000000
Si      -2.71216283       2.71376739       0.00185671       0.00000000
Si      -2.71512598      -0.00281817      -2.71199920       0.00000000
Si       2.71474479      -0.00224802      -2.71244618       0.00000000
