10
Lattice="16.28999089631971 0.0 0.0 0.0 16.28999089631971 0.0 0.0 0.0 34.383488856416385" Properties=species:S:1:pos:R:3:initial_magmoms:R:1 pbc="T T T"
Si       2.25911349       0.53796163      -0.30106200       0.00000000
Si      -0.81979425       2.22455330       0.49446923       0.00000000
Si      -1.29024945      -0.86900634      -1.85708765       0.00000000
Si      -0.35639262      -1.76585229       1.66505576       0.00000000
Si       2.56064139       0.98712743       2.03124012       0.00000000
Si      -2.68980480      -1.54864143       1.62307350       0.00000000
Si      -3.38060180      -0.98357391      -0.62853053       0.00000000
Si      -1.18495089       1.99501091       2.79245661       0.00000000
Si      -0.82404594      -3.21390297      -1.63572663       0.00000000
Si       0.95501754       3.83278355      -0.14516717       0.00000000
