10
Lattice="16.28999089631971 0.0 0.0 0.0 16.28999089631971 0.0 0.0 0.0 34.383488856416385" Properties=species:S:1:pos:R:3:initial_magmoms:R:1 pbc="T T T"
Si       1.53143919       0.37251972       1.71515253       0.00000000
Si      -0.41208813       2.11157726      -0.99492119       0.00000000
Si      -2.09222244      -1.00760166       0.64620365       0.00000000
Si       1.60743204      -1.22596911      -1.45129349       0.00000000
Si       2.85566958       2.02848360       0.66899992       0.00000000
Si       2.38842351      -1.88413398       1.92568275       0.00000000
Si      -3.32912214      -0.64140246      -1.36110555       0.00000000
Si      -1.49548716      -3.27958425       0.59665702       0.00000000
Si       1.73807784       3.02383844      -1.16955503       0.00000000
Si      -0.71361603       1.66241146      -3.32722331       0.00000000
