10
Lattice="16.28999089631971 0.0 0.0 0.0 16.28999089631971 0.0 0.0 0.0 34.383488856416385" Properties=species:S:1:pos:R:3:initial_magmoms:R:1 pbc="T T T"
Si       0.91072503       2.08818156      -0.24628907       0.00000000
Si      -2.29477230       0.28606869       0.21675363       0.00000000
Si       0.43041438      -1.78559577      -1.46315580       0.00000000
Si       0.87048873      -0.46719720       2.13157120       0.00000000
Si      -1.28304927      -3.14638092      -0.55721913       0.00000000
Si       3.14512659       1.62135577       0.33654578       0.00000000
Si      -3.11210676      -1.63810611      -0.82599501       0.00000000
Si      -0.69989985       0.49345668       3.56367869       0.00000000
Si       2.68521102      -2.29122108      -0.98876654       0.00000000
Si      -0.28437453       3.43766960       1.29739291       0.00000000
