10
Lattice="16.28999089631971 0.0 0.0 0.0 16.28999089631971 0.0 0.0 0.0 34.383488856416385" Properties=species:S:1:pos:R:3:initial_magmoms:R:1 pbc="T T T"
Si      -1.52689428       1.15926156      -1.43447996       0.00000000
Si       1.17182115      -1.56866740      -1.44531076       0.00000000
Si      -1.92006972      -0.88891828       1.30365071       0.00000000
Si       1.91622528       0.88773658       1.50713231       0.00000000
Si       2.57935860       2.58585994      -0.03713419       0.00000000
Si      -0.18326250       2.50128226      -2.82047917       0.00000000
Si      -2.88090279       2.45653363       0.10789545       0.00000000
Si       3.56009805      -0.83333680       1.00544254       0.00000000
Si       2.53822635      -0.21676368      -2.81683452       0.00000000
Si      -2.69609274      -2.69836261      -0.03390214       0.00000000
