10
Lattice="16.28999089631971 0.0 0.0 0.0 16.28999089631971 0.0 0.0 0.0 34.383488856416385" Properties=species:S:1:pos:R:3:initial_magmoms:R:1 pbc="T T T"
Si       1.55113380      -0.09029547      -1.78085942       0.00000000
Si      -2.02211747       1.10240946      -0.53528245       0.00000000
Si       0.98151160       1.23199641       1.84316233       0.00000000
Si      -0.48912517      -2.29017200       0.66961882       0.00000000
Si       0.80970422      -1.97540685      -2.95859772       0.00000000
Si      -1.17498860       3.02117598      -1.75885397       0.00000000
Si      -2.98198943      -0.35942256      -2.14580597       0.00000000
Si       3.63724749      -0.68401710      -0.69643796       0.00000000
Si      -1.55428496      -2.10898485      -2.80335618       0.00000000
Si       2.14819488      -0.45304119       3.18735120       0.00000000
