10
Lattice="16.28999089631971 0.0 0.0 0.0 16.28999089631971 0.0 0.0 0.0 34.383488856416385" Properties=species:S:1:pos:R:3:initial_magmoms:R:1 pbc="T T T"
Si      -0.55820943      -0.88632261       2.03051807       0.00000000
Si      -1.53049437       1.62253287      -0.56464597       0.00000000
Si       1.97486928       1.16291052       0.38774282       0.00000000
Si      -0.14032206      -1.96071653      -1.26548501       0.00000000
Si       3.18528144      -0.75878820       0.12278351       0.00000000
Si       2.14865100      -2.19230005      -1.42756887       0.00000000
Si      -1.30183164       1.10402217       2.95718800       0.00000000
Si      -1.25791380      -0.96536169      -3.10403996       0.00000000
Si      -2.94878322       1.39113342       1.29178840       0.00000000
Si      -1.73856654       1.33177266      -2.87122923       0.00000000
