10
Lattice="16.28999089631971 0.0 0.0 0.0 16.28999089631971 0.0 0.0 0.0 34.383488856416385" Properties=species:S:1:pos:R:3:initial_magmoms:R:1 pbc="T T T"
Si      -1.66651587       1.27914781      -1.00802131       0.00000000
Si      -1.07851203      -2.06102613       0.39637308       0.00000000
Si       0.36336474       1.14156247       2.04936023       0.00000000
Si       2.13115554      -0.00942377      -1.05382014       0.00000000
Si       2.02628052       2.61152321       1.27294624       0.00000000
Si       3.45398499       0.86196091       0.61539603       0.00000000
Si       0.68949054      -0.71457618       3.47885458       0.00000000
Si      -3.42023211      -1.39281033       0.40328417       0.00000000
Si      -0.47441367      -2.65626273       2.60159375       0.00000000
Si       2.07697500       1.40668222      -2.91575587       0.00000000
