10
Lattice="16.28999089631971 0.0 0.0 0.0 16.28999089631971 0.0 0.0 0.0 34.383488856416385" Properties=species:S:1:pos:R:3:initial_magmoms:R:1 pbc="T T T"
Si      -1.36371735      -1.35640314       1.35244091       0.00000000
Si       1.35847197      -1.35663120      -1.36058980       0.00000000
Si      -1.35778779       1.36010097      -1.36024596       0.00000000
Si       1.36542780       1.35381303       1.37723142       0.00000000
Si       0.04225626      -2.63063952       2.78038800       0.00000000
Si       2.71164969      -2.71559187      -0.00391972       0.00000000
Si       2.71547784       2.71495656      -0.00226931       0.00000000
Si       2.71381626       0.00136836      -2.71756933       0.00000000
Si      -0.00104256      -2.71406061      -2.71763809       0.00000000
Si      -2.71731861       2.71529865      -0.00068767       0.00000000
