10
Lattice="16.28999089631971 0.0 0.0 0.0 16.28999089631971 0.0 0.0 0.0 34.383488856416385" Properties=species:S:1:pos:R:3:initial_magmoms:R:1 pbc="T T T"
Si      -1.75485654      -0.65568879       1.41037712       0.00000000
Si       0.70553619       2.15723583      -0.65847856       0.00000000
Si       2.08466388      -0.82600074       0.85577113       0.00000000
Si      -0.93452472      -0.68018895      -2.17011511       0.00000000
Si      -1.27420380      -2.95282314       1.17756638       0.00000000
Si       3.44517210      -0.40156479      -1.04577440       0.00000000
Si       0.33671430      -2.62407465      -2.58753090       0.00000000
Si       0.28554741      -3.68543168      -0.45252135       0.00000000
Si       2.99898900       1.89770355      -1.32070493       0.00000000
Si       2.56319892       0.53151012       2.81057672       0.00000000
