10
Lattice="16.28999089631971 0.0 0.0 0.0 16.28999089631971 0.0 0.0 0.0 34.383488856416385" Properties=species:S:1:pos:R:3:initial_magmoms:R:1 pbc="T T T"
Si      -0.73559124      -2.13379452       0.61061672       0.00000000
Si       2.04509547      -0.60922971      -1.00974048       0.00000000
Si      -0.40744548       1.59661548       1.76005739       0.00000000
Si      -1.59454665       0.26907822      -1.80537486       0.00000000
Si      -0.81244746      -2.85775470      -1.64064347       0.00000000
Si       1.27899306      -2.20602438      -2.56064300       0.00000000
Si      -2.55785580       2.28327156      -1.15253519       0.00000000
Si      -2.72122821       2.08606482       1.17980131       0.00000000
Si       0.65446704       3.51160272       0.82571995       0.00000000
Si      -2.75812506      -1.82042379       1.83140317       0.00000000
