10
Lattice="16.28999089631971 0.0 0.0 0.0 16.28999089631971 0.0 0.0 0.0 34.383488856416385" Properties=species:S:1:pos:R:3:initial_magmoms:R:1 pbc="T T T"
Si       1.06191252       1.91498724      -0.93433745       0.00000000
Si       0.40744548      -1.59661548      -1.76005739       0.00000000
Si      -2.31378273       0.48944934      -0.58025608       0.00000000
Si       0.75816918      -0.55785105       2.29846875       0.00000000
Si      -2.15041032       0.68665608      -2.91259259       0.00000000
Si      -0.20426031       2.16368667      -2.98039686       0.00000000
Si       2.30117427       1.23341364       2.79115003       0.00000000
Si      -3.56868288      -1.37790594       0.15376305       0.00000000
Si       0.43310223       3.81052422       0.46331777       0.00000000
Si      -0.32814576      -3.73041000      -1.14944067       0.00000000
