10
Lattice="16.28999089631971 0.0 0.0 0.0 16.28999089631971 0.0 0.0 0.0 34.383488856416385" Properties=species:S:1:pos:R:3:initial_magmoms:R:1 pbc="T T T"
Si       1.34532594       1.36546038       1.37988238       0.00000000
Si      -1.36891386      -1.34967537       1.37417472       0.00000000
Si      -1.38082185       1.39185018      -1.36954670       0.00000000
Si       1.42244280      -1.39429368      -1.43520889       0.00000000
Si       2.42579277       0.23200218      -2.83104663       0.00000000
Si       2.71015101      -2.71086777       0.02970735       0.00000000
Si       2.69882946       2.72253141      -0.00219711       0.00000000
Si       2.70270648       0.00635310       2.73655246       0.00000000
Si      -2.72914515      -2.71751409      -0.02522374       0.00000000
Si      -2.74022235       2.70695420       0.03316289       0.00000000
