10
Lattice="16.28999089631971 0.0 0.0 0.0 16.28999089631971 0.0 0.0 0.0 34.383488856416385" Properties=species:S:1:pos:R:3:initial_magmoms:R:1 pbc="T T T"
Si      -1.35548275      -1.35629066       1.35715145       0.00000000
Si       1.35700587      -1.35730064      -1.35694515       0.00000000
Si      -1.35804680       1.35728518      -1.35763282       0.00000000
Si       1.35847197       1.36144076       1.35807980       0.00000000
Si       0.00100998       2.71263273       2.71378714       0.00000000
Si      -0.00255753       2.71426173      -2.71474988       0.00000000
Si       2.71453302       2.71489704       0.00013753       0.00000000
Si       2.71425609      -2.71518617       0.00027507       0.00000000
Si       2.71642266      -0.00077366      -2.71402783       0.00000000
Si      -2.71552608      -2.71508843       0.00041260       0.00000000
