10
Lattice="16.28999089631971 0.0 0.0 0.0 16.28999089631971 0.0 0.0 0.0 34.383488856416385" Properties=species:S:1:pos:R:3:initial_magmoms:R:1 pbc="T T T"
Si       1.07851203       2.06102613      -0.39637308       0.00000000
Si       0.60409836      -0.59523660       2.20522067       0.00000000
Si      -2.34172008       0.66821580       0.00691109       0.00000000
Si       0.62881029      -1.89553698      -1.39765522       0.00000000
Si      -0.58800384       3.34017395      -1.40439439       0.00000000
Si      -2.44367919       1.95420934      -1.95167669       0.00000000
Si       1.76800257       1.34644995       3.08248150       0.00000000
Si      -1.36078515      -1.48646250       3.25601506       0.00000000
Si      -3.59637588      -1.38093588       0.03978172       0.00000000
Si      -0.43310223      -3.81052422      -0.46331777       0.00000000
