10
Lattice="16.28999089631971 0.0 0.0 0.0 16.28999089631971 0.0 0.0 0.0 34.383488856416385" Properties=species:S:1:pos:R:3:initial_magmoms:R:1 pbc="T T T"
Si       0.19282473      -2.35210007      -0.09558615       0.00000000
Si       1.36050822       0.42443595      -1.90154553       0.00000000
Si      -2.08466388       0.82600074      -0.85577113       0.00000000
Si       0.47853504       1.35751086       1.95480558       0.00000000
Si       0.91432512       2.72370429      -2.17647606       0.00000000
Si      -1.37912769       2.98323657      -1.51424970       0.00000000
Si      -1.79911647      -2.85943094      -1.30829248       0.00000000
Si       3.61490317       0.28790946       0.90514585       0.00000000
Si      -0.12608460       0.00144981       3.81357803       0.00000000
Si       0.46447677      -0.91639395      -3.73580254       0.00000000
