10
Lattice="16.28999089631971 0.0 0.0 0.0 16.28999089631971 0.0 0.0 0.0 34.383488856416385" Properties=species:S:1:pos:R:3:initial_magmoms:R:1 pbc="T T T"
Si      -1.38570885       1.31080743       1.43337968       0.00000000
Si      -1.13235048      -1.41248961      -1.55904251       0.00000000
Si       1.33021379      -1.40333463       1.41668993       0.00000000
Si       1.11117348       1.61067375      -1.41150287       0.00000000
Si       0.77965569      -2.89296716      -1.84332535       0.00000000
Si      -1.05308334       2.69143380      -2.01036043       0.00000000
Si      -1.62859275       0.68018895      -3.24799481       0.00000000
Si       2.70475155      -2.58813565      -0.24229370       0.00000000
Si      -2.68001451      -2.62552609      -0.01940605       0.00000000
Si      -2.03901930       3.14820540       0.10700835       0.00000000
