10
Lattice="16.28999089631971 0.0 0.0 0.0 16.28999089631971 0.0 0.0 0.0 34.383488856416385" Properties=species:S:1:pos:R:3:initial_magmoms:R:1 pbc="T T T"
Si       1.34808709       1.35614250      -1.38180442       0.00000000
Si      -1.36824501      -1.35913986      -1.38238894       0.00000000
Si       1.45185440      -1.29665142       1.41374670       0.00000000
Si      -1.24340202       1.48717926       1.44957432       0.00000000
Si       2.74892936       0.28059525       2.63319220       0.00000000
Si      -2.70607755       2.70135441      -0.02128339       0.00000000
Si      -2.72642376      -2.69316054       0.00312890       0.00000000
Si       2.68720655       2.73574260      -0.03520871       0.00000000
Si       2.71540453      -2.72921031       0.00309452       0.00000000
Si       2.70999625      -0.00236205      -2.74232545       0.00000000
