10
Lattice="16.28999089631971 0.0 0.0 0.0 16.28999089631971 0.0 0.0 0.0 34.383488856416385" Properties=species:S:1:pos:R:3:initial_magmoms:R:1 pbc="T T T"
Si       1.35410625       1.34511417       1.37849329       0.00000000
Si      -0.65331045       1.83739797      -1.32637133       0.00000000
Si      -1.37797110      -1.35511623       1.36704358       0.00000000
Si       1.38570885      -1.31080743      -1.43337968       0.00000000
Si       0.33262551       1.38062637      -3.44374012       0.00000000
Si       2.49688233       0.29986632      -2.84488256       0.00000000
Si      -2.70212004       2.71111212      -0.02001120       0.00000000
Si       2.69554642       2.71896390       0.03580355       0.00000000
Si      -2.71999017      -2.69869914      -0.01195858       0.00000000
Si       2.71592264      -2.71414206      -0.01668975       0.00000000
