10
Lattice="16.28999089631971 0.0 0.0 0.0 16.28999089631971 0.0 0.0 0.0 34.383488856416385" Properties=species:S:1:pos:R:3:initial_magmoms:R:1 pbc="T T T"
Si      -1.28107818      -1.43223309       1.39487016       0.00000000
Si      -1.40123322       1.19822724      -1.56070181       0.00000000
Si       1.29942072      -1.48791231      -1.55306868       0.00000000
Si       1.45906272       1.53764568       1.43809023       0.00000000
Si      -2.72665278       2.61053766      -0.19313216       0.00000000
Si      -2.76547185       0.03153744       2.61111799       0.00000000
Si       2.78244246       2.69242749      -0.10662326       0.00000000
Si      -0.05118318       2.55937077      -2.94020254       0.00000000
Si      -2.72440476      -2.78622531      -0.15754523       0.00000000
Si       2.89545532      -2.66318694      -0.23205430       0.00000000
