10
Lattice="16.28999089631971 0.0 0.0 0.0 16.28999089631971 0.0 0.0 0.0 34.383488856416385" Properties=species:S:1:pos:R:3:initial_magmoms:R:1 pbc="T T T"
Si       1.35651882       1.35581670      -1.35777035       0.00000000
Si       1.35671327      -1.35746199       1.35732336       0.00000000
Si      -1.35759231       1.35726651       1.35725460       0.00000000
Si      -1.35689184      -1.35749457      -1.35952391       0.00000000
Si       0.00057015      -2.71327869       2.71382153       0.00000000
Si      -2.71428867       0.00029322       2.71419974       0.00000000
Si       2.71425676       2.71467963       0.00027507       0.00000000
Si       0.00301365       2.71494027      -2.71402783       0.00000000
Si       2.71705538       0.00260640      -2.71268687       0.00000000
Si       2.71553878       0.00114030       2.71450920       0.00000000
