10
Lattice="16.28999089631971 0.0 0.0 0.0 16.28999089631971 0.0 0.0 0.0 34.383488856416385" Properties=species:S:1:pos:R:3:initial_magmoms:R:1 pbc="T T T"
Si       1.28547648       1.29088476      -1.43341407       0.00000000
Si      -0.82837908       1.81830609       1.27748486       0.00000000
Si       1.39054698      -1.12871781       1.67674615       0.00000000
Si      -1.50781869      -1.44549315      -1.38648058       0.00000000
Si      -0.95534334      -1.75342302       2.40031270       0.00000000
Si      -0.97850772       0.89702514       3.41995563       0.00000000
Si       2.67789681      -2.51838513       0.24474181       0.00000000
Si       2.53860102      -0.14942817      -2.77082938       0.00000000
Si      -0.19135863       2.58949098      -2.75284681       0.00000000
Si       3.10448304       2.20385781      -0.09276670       0.00000000
