10
Lattice="16.28999089631971 0.0 0.0 0.0 16.28999089631971 0.0 0.0 0.0 34.383488856416385" Properties=species:S:1:pos:R:3:initial_magmoms:R:1 pbc="T T T"
Si       0.95415417       2.16857367       0.71992189       0.00000000
Si       1.66565250      -0.47667798      -1.83064674       0.00000000
Si      -0.65982645      -1.90630467       1.63032842       0.00000000
Si      -2.17029878      -1.72885770      -0.13674321       0.00000000
Si      -1.34293131       2.51845029      -1.63854608       0.00000000
Si       1.98107577      -2.38790223       1.22202426       0.00000000
Si       0.74077146      -0.93377538       3.16390165       0.00000000
Si       1.34819298       1.33576371       2.92301079       0.00000000
Si       3.31385841      -1.45808532      -0.46314585       0.00000000
Si       0.36857754      -2.05392465      -3.05009223       0.00000000
