10
Lattice="16.28999089631971 0.0 0.0 0.0 16.28999089631971 0.0 0.0 0.0 34.383488856416385" Properties=species:S:1:pos:R:3:initial_magmoms:R:1 pbc="T T T"
Si       1.54127835       1.73050299      -0.00948985       0.00000000
Si       0.96031179      -1.53060840       1.50957354       0.00000000
Si      -2.23003584       0.59710995       0.53225670       0.00000000
Si       0.05967027      -1.59176106      -1.79268734       0.00000000
Si      -2.88165213      -1.68142122       0.05869265       0.00000000
Si      -1.23483087      -3.28844601      -0.61106371       0.00000000
Si       1.17017586       2.90188431      -1.99620333       0.00000000
Si       2.67571395      -2.58686829       0.12501844       0.00000000
Si       2.17552950      -0.53027208       3.25426150       0.00000000
Si       1.36751292       3.35590290       1.63380115       0.00000000
