10
Lattice="16.28999089631971 0.0 0.0 0.0 16.28999089631971 0.0 0.0 0.0 34.383488856416385" Properties=species:S:1:pos:R:3:initial_magmoms:R:1 pbc="T T T"
Si       1.88204741      -0.33593238      -1.32128945       0.00000000
Si       1.58104224      -0.43290675       1.64765912       0.00000000
Si      -0.52556427       2.17888524      -0.62148191       0.00000000
Si      -1.60550982      -1.74202002      -0.30037433       0.00000000
Si       0.05150898      -1.54183221       3.08209094       0.00000000
Si      -3.32988777      -0.09070272       1.28205787       0.00000000
Si      -1.88843454       1.61715717      -2.58698076       0.00000000
Si      -1.22780988       3.12667002       1.44032515       0.00000000
Si       1.23176835      -0.36054657      -3.65266321       0.00000000
Si       3.54695921       1.47546675      -0.60917261       0.00000000
