10
Lattice="16.28999089631971 0.0 0.0 0.0 16.28999089631971 0.0 0.0 0.0 34.383488856416385" Properties=species:S:1:pos:R:3:initial_magmoms:R:1 pbc="T T T"
Si       1.36783872       1.33206588       1.36148377       0.00000000
Si      -1.35312885       1.35839052      -1.35680761       0.00000000
Si       1.36021500      -1.35633798      -1.35684200       0.00000000
Si      -1.35483930      -1.34464176       1.38218264       0.00000000
Si       0.12199581      -2.64324798       2.70161538       0.00000000
Si      -2.71018359       2.71097841       0.00443547       0.00000000
Si      -2.71213839       0.00003258      -2.71389029       0.00000000
Si       0.00219915       2.71508689      -2.71385591       0.00000000
Si       0.00289962      -2.71529865      -2.71392468       0.00000000
Si      -2.71402803      -2.71596654       0.00350712       0.00000000
