10
Lattice="16.28999089631971 0.0 0.0 0.0 16.28999089631971 0.0 0.0 0.0 34.383488856416385" Properties=species:S:1:pos:R:3:initial_magmoms:R:1 pbc="T T T"
Si       0.75327145      -2.15166465       0.47287639       0.00000000
Si      -0.52719327       0.32500179      -2.25775867       0.00000000
Si      -1.63962108       1.03193892       1.31582247       0.00000000
Si       1.76627976       1.50421860       0.41036717       0.00000000
Si       2.41120412      -2.07949995      -1.20534826       0.00000000
Si      -1.26851859      -0.13944240       3.30253595       0.00000000
Si       0.65667663       3.57614600       0.15341921       0.00000000
Si      -3.55508073       0.81489096      -0.09369506       0.00000000
Si      -2.51063109       1.80434556      -1.97031255       0.00000000
Si       2.45707676       0.93915108       2.66197119       0.00000000
