10
Lattice="16.28999089631971 0.0 0.0 0.0 16.28999089631971 0.0 0.0 0.0 34.383488856416385" Properties=species:S:1:pos:R:3:initial_magmoms:R:1 pbc="T T T"
Si       0.86693751      -1.97320770      -1.00836514       0.00000000
Si      -0.52822280       2.01865680      -1.19750882       0.00000000
Si       1.41705081       0.64472562       1.84409069       0.00000000
Si      -2.27935286      -0.86921811       0.35177767       0.00000000
Si      -2.20287131       2.81281059       0.35040233       0.00000000
Si       2.89740456       1.39799151      -1.75077385       0.00000000
Si       0.29470239      -1.91954844      -3.26265108       0.00000000
Si      -3.69381356       1.01465523      -0.08901890       0.00000000
Si      -3.06554084      -1.55792673      -1.80228034       0.00000000
Si       1.40590845       3.24407205      -1.79206844       0.00000000
