10
Lattice="16.28999089631971 0.0 0.0 0.0 16.28999089631971 0.0 0.0 0.0 34.383488856416385" Properties=species:S:1:pos:R:3:initial_magmoms:R:1 pbc="T T T"
Si       0.82117890       1.84520088      -1.29185514       0.00000000
Si      -1.35974259       1.32323670       1.46723712       0.00000000
Si       1.37448504      -1.37072205       1.44563397       0.00000000
Si      -1.38207618      -1.42853526      -1.38582527       0.00000000
Si      -1.12718655       3.19876956      -1.26648011       0.00000000
Si       2.61120555       2.71964808       0.01179698       0.00000000
Si      -2.95575860       2.40604929       0.07708439       0.00000000
Si      -2.77355495      -2.67748956       0.08674959       0.00000000
Si      -2.04004557      -0.17179434      -3.29001833       0.00000000
Si       2.82937752      -2.68092675      -0.00507157       0.00000000
