10
Lattice="16.28999089631971 0.0 0.0 0.0 16.28999089631971 0.0 0.0 0.0 34.383488856416385" Properties=species:S:1:pos:R:3:initial_magmoms:R:1 pbc="T T T"
Si       0.12830004       1.88745714       1.35165009       0.00000000
Si      -1.93413125      -1.22541525       0.59455962       0.00000000
Si       1.49149611      -1.84608054       0.04129459       0.00000000
Si      -0.00979029       1.19114109      -2.08848866       0.00000000
Si       1.39514076      -2.24857386      -2.33715019       0.00000000
Si       1.84176369       3.24824229       0.44571342       0.00000000
Si       1.18855098      -0.20971746      -3.58496209       0.00000000
Si      -3.21343775      -1.52860473      -1.35302543       0.00000000
Si       3.69115110      -1.06487730       0.57076623       0.00000000
Si      -2.20642023       1.93961772      -2.55335369       0.00000000
