10
Lattice="16.28999089631971 0.0 0.0 0.0 16.28999089631971 0.0 0.0 0.0 34.383488856416385" Properties=species:S:1:pos:R:3:initial_magmoms:R:1 pbc="T T T"
Si       1.27849279      -1.36910934      -1.37922566       0.00000000
Si      -0.89220088      -1.73714931       1.29429839       0.00000000
Si       0.56598123       1.93285737       1.22917603       0.00000000
Si      -1.46536453       1.32519150      -1.38648058       0.00000000
Si      -1.01991448       0.48485556       2.59107240       0.00000000
Si       2.56926841       2.73723690       0.09981532       0.00000000
Si       2.60082214      -0.00917127      -2.74517928       0.00000000
Si      -2.71120744      -2.65012236      -0.04634897       0.00000000
Si      -0.11570545       2.70749244      -2.74352888       0.00000000
Si      -0.11755843      -2.72468169      -2.74407901       0.00000000
