10
Lattice="16.28999089631971 0.0 0.0 0.0 16.28999089631971 0.0 0.0 0.0 34.383488856416385" Properties=species:S:1:pos:R:3:initial_magmoms:R:1 pbc="T T T"
Si       0.46620351      -2.34489663       0.22136102       0.00000000
Si       1.29024945       0.86900634       1.85708765       0.00000000
Si      -2.09035235      -0.11456757       1.22855713       0.00000000
Si       0.87884550       1.81023344      -2.31153448       0.00000000
Si       2.23273998      -2.49443883      -1.50902340       0.00000000
Si       0.93385683      -0.89684595       3.52214342       0.00000000
Si      -1.39955535      -0.67963509       3.48016115       0.00000000
Si      -3.19995547       1.95735983       0.97160917       0.00000000
Si       0.47045520       3.09355964       2.35155688       0.00000000
Si       2.92439709       0.25330950      -2.65368477       0.00000000
