10
Lattice="16.28999089631971 0.0 0.0 0.0 16.28999089631971 0.0 0.0 0.0 34.383488856416385" Properties=species:S:1:pos:R:3:initial_magmoms:R:1 pbc="T T T"
Si      -0.46620351       2.34489663      -0.22136102       0.00000000
Si      -1.91163150      -1.35338949      -0.60851933       0.00000000
Si       1.76653647      -0.14954220      -1.73038443       0.00000000
Si       0.54341811      -0.68053104       2.34045101       0.00000000
Si       0.89671563      -2.31418998      -2.21013752       0.00000000
Si      -0.54468873      -3.29968611      -0.43072221       0.00000000
Si      -2.55655586       2.23032906       1.00719610       0.00000000
Si       0.46765332       1.44805068       3.30078239       0.00000000
Si       0.82404594       3.21390297       1.63572663       0.00000000
Si      -3.56956417      -1.42555419       1.06970532       0.00000000
