10
Lattice="10.86 0.0 0.0 0.0 10.86 0.0 0.0 0.0 10.86" Properties=species:S:1:pos:R:3:initial_magmoms:R:1 pbc="T T T"
Si      -1.39934358      -1.23053574       1.12556298       0.00000000
Si       1.30177734       1.36950030       1.16293224       0.00000000
Si       1.30177734      -1.34549970      -1.55206776       0.00000000
Si      -1.41322266       1.36950030      -1.55206776       0.00000000
Si      -2.67305868      -0.00119460       2.47117128       0.00000000
Si       2.69004372      -0.11065254       2.48996994       0.00000000
Si      -0.05572266       2.72700030       2.52043224       0.00000000
Si       2.53183524      -2.74116174      -0.15227892       0.00000000
Si       2.65927734       2.72700030      -0.19456776       0.00000000
Si      -2.77072266       2.72700030      -0.19456776       0.00000000
