10
Lattice="16.28999089631971 0.0 0.0 0.0 16.28999089631971 0.0 0.0 0.0 34.48637585096406" Properties=species:S:1:pos:R:3:initial_magmoms:R:1 pbc="T T T"
Si      -1.35527913       1.35692416      -1.35855705       0.00000000
Si       1.35731538       1.35715222       1.35676376       0.00000000
Si      -1.35775521      -1.35745966       1.35641889       0.00000000
Si       1.35519768      -1.35547228      -1.36183326       0.00000000
Si      -2.69187363      -0.01214398      -2.73588849       0.00000000
Si      -0.00003258      -2.71480762       2.71401032       0.00000000
Si       2.71485882      -0.00030316       2.71401032       0.00000000
Si      -2.71269225      -2.71646920      -0.00051730       0.00000000
Si      -0.00016290       2.71498237       2.71418276       0.00000000
Si      -2.71472850      -0.00039091       2.71470005       0.00000000
