10
Lattice="16.28999089631971 0.0 0.0 0.0 16.28999089631971 0.0 0.0 0.0 34.48637585096406" Properties=species:S:1:pos:R:3:initial_magmoms:R:1 pbc="T T T"
Si      -0.91830803       1.20068703      -1.84202182       0.00000000
Si      -0.31103312       1.75622490       1.80522484       0.00000000
Si      -0.80903145      -2.23581716       1.04935203       0.00000000
Si       2.09570850      -1.28707290      -1.34714205       0.00000000
Si       0.17572023       0.21344787       3.54678779       0.00000000
Si      -1.88125784      -0.57611214      -3.08318718       0.00000000
Si       3.50713926      -1.07277795       0.79408373       0.00000000
Si       2.14658217      -1.12617657       3.00807581       0.00000000
Si       0.98440470       2.31055731      -3.05394272       0.00000000
Si       0.91833246      -3.11260344       2.46808784       0.00000000
