10
Lattice="16.28999089631971 0.0 0.0 0.0 16.28999089631971 0.0 0.0 0.0 34.48637585096406" Properties=species:S:1:pos:R:3:initial_magmoms:R:1 pbc="T T T"
Si      -1.35114147       1.31080743       1.51463558       0.00000000
Si       1.97607474       0.66513699      -1.26683500       0.00000000
Si       1.33253829      -1.42602660       1.51216980       0.00000000
Si      -2.01507300      -0.96624135      -1.16854429       0.00000000
Si       2.77280235       2.62145196       0.08224660       0.00000000
Si      -2.71812334       2.72399751       0.12029199       0.00000000
Si       2.73821868      -2.76225295       0.11161177       0.00000000
Si      -2.74149949      -2.79577451       0.22754124       0.00000000
Si      -0.00809613       2.64826530       2.89741242       0.00000000
Si       2.70669753      -0.06634917       2.89089449       0.00000000
