10
Lattice="16.28999089631971 0.0 0.0 0.0 16.28999089631971 0.0 0.0 0.0 34.48637585096406" Properties=species:S:1:pos:R:3:initial_magmoms:R:1 pbc="T T T"
Si       1.59234750       0.87695586      -1.61541172       0.00000000
Si       1.41143076       0.21429495       2.14122579       0.00000000
Si      -1.04752845      -1.83741507      -1.66938293       0.00000000
Si      -2.09570850       1.28707290       1.34714205       0.00000000
Si       2.03877495      -1.99887164       1.66007160       0.00000000
Si       2.86778934       2.38852125      -0.20309038       0.00000000
Si       0.29667348       2.21464179      -3.17129992       0.00000000
Si      -2.90473995      -0.94874426       2.39649408       0.00000000
Si      -3.01401652       2.48775993      -0.49487977       0.00000000
Si      -2.42100351      -0.50728526      -3.17298976       0.00000000
