10
Lattice="16.28999089631971 0.0 0.0 0.0 16.28999089631971 0.0 0.0 0.0 34.48637585096406" Properties=species:S:1:pos:R:3:initial_magmoms:R:1 pbc="T T T"
Si       1.35782037      -1.35674523      -1.36245401       0.00000000
Si      -1.35798327       1.35962856      -1.36221261       0.00000000
Si       1.36557441       1.35182565       1.37659343       0.00000000
Si      -1.35832536      -1.35418770       1.38555990       0.00000000
Si      -0.12250080       2.66911650       2.68262770       0.00000000
Si       2.71458189      -2.71085148      -0.00251751       0.00000000
Si      -2.71564074      -2.71081890       0.00068973       0.00000000
Si       2.71632492       2.71630863      -0.00110356       0.00000000
Si       0.00013032      -2.71360449      -2.71949366       0.00000000
Si      -2.71484253       0.00092853      -2.71949366       0.00000000
