10
Lattice="16.28999089631971 0.0 0.0 0.0 16.28999089631971 0.0 0.0 0.0 34.48637585096406" Properties=species:S:1:pos:R:3:initial_magmoms:R:1 pbc="T T T"
Si       1.80574650      -1.10172528      -0.92999462       0.00000000
Si      -1.98905787      -0.99499320      -0.84019204       0.00000000
Si      -0.05523939       2.16741708      -1.02376313       0.00000000
Si      -0.45271539      -0.29797668       2.37459522       0.00000000
Si      -2.13886071       2.53216647      -0.09518245       0.00000000
Si      -2.05933293       1.72030545       2.17757445       0.00000000
Si       0.78991839      -3.23146359      -1.18357308       0.00000000
Si      -3.26557485       0.92321946      -1.44346255       0.00000000
Si       1.30482900      -2.29426731       2.73735761       0.00000000
Si       2.52636723      -0.06356358      -2.88420068       0.00000000
