10
Lattice="16.28999089631971 0.0 0.0 0.0 16.28999089631971 0.0 0.0 0.0 34.48637585096406" Properties=species:S:1:pos:R:3:initial_magmoms:R:1 pbc="T T T"
Si       0.01265733      -0.97508682       2.16881490       0.00000000
Si      -0.59623029      -1.62468315      -1.66548597       0.00000000
Si       2.16872028       1.14730470      -0.06355843       0.00000000
Si      -1.75754439       1.99629063      -0.36276239       0.00000000
Si       0.51564366       1.22357448       2.88833905       0.00000000
Si      -0.63939879       2.86197381       1.58347732       0.00000000
Si       1.49017662      -2.66395583      -1.66189938       0.00000000
Si       2.45555460       1.09687086      -2.34900632       0.00000000
Si      -3.55983741       0.43901550       0.17588062       0.00000000
Si       1.57918518       3.41000199       0.51422664       0.00000000
