10
Lattice="16.28999089631971 0.0 0.0 0.0 16.28999089631971 0.0 0.0 0.0 34.48637585096406" Properties=species:S:1:pos:R:3:initial_magmoms:R:1 pbc="T T T"
Si       1.22220612      -1.50006465       1.36630614       0.00000000
Si      -1.47989763       1.26156276       1.36142977       0.00000000
Si       1.89830628       0.88062111      -1.18928265       0.00000000
Si      -1.97654715      -0.76616757      -1.15716685       0.00000000
Si       2.57919570      -0.12302208       2.73456421       0.00000000
Si      -0.13611924       2.59212996       2.74235814       0.00000000
Si      -2.71123104       2.64723903      -0.22812750       0.00000000
Si      -1.46899962      -0.54071397      -3.50217761       0.00000000
Si       3.55693779      -0.98411148      -1.12444236       0.00000000
Si       2.72776050       2.73878883      -0.02519921       0.00000000
