10
Lattice="16.28999089631971 0.0 0.0 0.0 16.28999089631971 0.0 0.0 0.0 34.48637585096406" Properties=species:S:1:pos:R:3:initial_magmoms:R:1 pbc="T T T"
Si       0.58129236      -0.79392573       2.15357192       0.00000000
Si      -0.75280977      -1.91967876      -1.19043587       0.00000000
Si       1.97276787       0.84287718      -1.09435678       0.00000000
Si      -1.55338182       2.11090707      -0.03558996       0.00000000
Si      -2.01360690      -0.51266259      -2.52554217       0.00000000
Si       0.73982664       2.21074848      -2.53354302       0.00000000
Si       0.73254501       1.25973828       3.28996761       0.00000000
Si      -3.38706567       0.86030748      -1.12601529       0.00000000
Si      -2.06185788      -3.02912550       0.40790508       0.00000000
Si      -3.30182010      -0.89619435       1.49139864       0.00000000
