10
Lattice="16.28999089631971 0.0 0.0 0.0 16.28999089631971 0.0 0.0 0.0 34.48637585096406" Properties=species:S:1:pos:R:3:initial_magmoms:R:1 pbc="T T T"
Si      -2.19253626      -0.10435374       0.75218276       0.00000000
Si       0.13434363      -2.28108870      -0.48939643       0.00000000
Si       0.02580336       0.63915444      -2.25009934       0.00000000
Si       1.43096247       1.68055785       0.79091099       0.00000000
Si       2.44319049       0.67585581      -2.15395127       0.00000000
Si       1.17476964       1.31698134       3.06507773       0.00000000
Si       2.30244489      -2.14125534      -1.81322568       0.00000000
Si       3.55855050       1.06816788      -0.11242565       0.00000000
Si      -3.44638082       1.17446013      -0.87716146       0.00000000
Si       0.82583784       3.64998627      -0.41376777       0.00000000
