10
Lattice="16.28999089631971 0.0 0.0 0.0 16.28999089631971 0.0 0.0 0.0 34.48637585096406" Properties=species:S:1:pos:R:3:initial_magmoms:R:1 pbc="T T T"
Si       1.57320675      -1.17265194       1.24978696       0.00000000
Si       1.36816452       1.32532632      -1.36397141       0.00000000
Si      -1.34617302      -1.39157325      -1.36307477       0.00000000
Si      -1.33261974       1.34911159       1.52616093       0.00000000
Si      -2.47954488      -0.38903778       2.76963688       0.00000000
Si       0.44683470      -2.83493241       2.47615766       0.00000000
Si      -2.70609480       2.67924141       0.02255410       0.00000000
Si       0.01392795       2.68433692      -2.72211463       0.00000000
Si       2.72645730       2.68963280       0.03031354       0.00000000
Si      -2.70222918      -0.03103245      -2.72332165       0.00000000
