10
Lattice="16.28999089631971 0.0 0.0 0.0 16.28999089631971 0.0 0.0 0.0 34.48637585096406" Properties=species:S:1:pos:R:3:initial_magmoms:R:1 pbc="T T T"
Si       1.31484735       1.45062664      -1.41980489       0.00000000
Si      -1.29762882      -1.14505668      -1.70138630       0.00000000
Si      -1.11715191       1.21525029       1.90444220       0.00000000
Si       1.16538660      -1.61461593       1.81601908       0.00000000
Si       0.61377462       0.60181776       3.31959142       0.00000000
Si       2.41803873      -2.71029762      -0.14801561       0.00000000
Si      -2.42400087      -2.80733715      -0.47501561       0.00000000
Si       2.56054365       0.01161477      -2.94820743       0.00000000
Si       2.92558626       2.59521596      -0.08149135       0.00000000
Si      -0.14437827       2.71722806      -2.92085972       0.00000000
