10
Lattice="16.28999089631971 0.0 0.0 0.0 16.28999089631971 0.0 0.0 0.0 34.48637585096406" Properties=species:S:1:pos:R:3:initial_magmoms:R:1 pbc="T T T"
Si       0.78161049       0.78985323      -2.06207951       0.00000000
Si      -1.93166820      -1.21067280      -0.58092333       0.00000000
Si       2.07415683      -0.45867753       1.05214543       0.00000000
Si      -0.70104015       1.32427926       1.93606622       0.00000000
Si       1.59495390       1.23724179       2.63279486       0.00000000
Si       2.26318599       2.51220537      -1.34807319       0.00000000
Si      -2.70032814       0.08860131      -2.47736468       0.00000000
Si      -3.21224139      -1.08774846       1.42059807       0.00000000
Si       1.93432347      -2.42100351       2.30282903       0.00000000
Si      -1.29202506       3.50423054       0.99634644       0.00000000
