10
Lattice="16.28999089631971 0.0 0.0 0.0 16.28999089631971 0.0 0.0 0.0 34.48637585096406" Properties=species:S:1:pos:R:3:initial_magmoms:R:1 pbc="T T T"
Si      -0.46333647       2.10233853       1.02945338       0.00000000
Si      -1.96434594      -1.16979304      -0.71328211       0.00000000
Si       1.31062824       1.10032434      -1.71424973       0.00000000
Si       1.49169159      -0.90461465       1.73525194       0.00000000
Si       0.81612900       3.21864336      -0.62203111       0.00000000
Si      -1.16089056      -3.30159923      -0.14404967       0.00000000
Si       3.51378558       0.29468610       1.29003258       0.00000000
Si       0.71755821       0.10935477       3.76046550       0.00000000
Si       3.59510526       0.98217297      -0.96541215       0.00000000
Si       0.55017846       2.35838475       3.13139916       0.00000000
