10
Lattice="16.28999089631971 0.0 0.0 0.0 16.28999089631971 0.0 0.0 0.0 34.48637585096406" Properties=species:S:1:pos:R:3:initial_magmoms:R:1 pbc="T T T"
Si       1.69321518       0.80413956       1.36938030       0.00000000
Si       1.23031854       0.51199470      -1.96224140       0.00000000
Si      -0.89482599      -1.82140119       1.37923996       0.00000000
Si      -1.78551432       1.76423958      -0.12242670       0.00000000
Si       0.32037543       2.11144464       2.78072912       0.00000000
Si       2.89471671       2.30129549       0.00300032       0.00000000
Si      -2.41408026      -0.60773103       2.75961655       0.00000000
Si      -0.50163426       0.61165692      -3.63600410       0.00000000
Si       1.29314907       3.16377117      -1.64648396       0.00000000
Si      -1.01232576       3.48044062       1.35958271       0.00000000
