10
Lattice="16.28999089631971 0.0 0.0 0.0 16.28999089631971 0.0 0.0 0.0 34.48637585096406" Properties=species:S:1:pos:R:3:initial_magmoms:R:1 pbc="T T T"
Si       1.35609363       1.35811359       1.35724657       0.00000000
Si       1.35441576      -1.35860718      -1.35848808       0.00000000
Si      -1.35918873      -1.35696677       1.35728105       0.00000000
Si      -1.36042677       1.35728280      -1.36286785       0.00000000
Si       2.71308321       0.00086337       2.71456211       0.00000000
Si       2.71331127      -2.71508548       0.00251751       0.00000000
Si       0.00379557      -2.70761696      -2.72100416       0.00000000
Si      -0.00164529      -2.71442215       2.71452762       0.00000000
Si      -0.00172674       2.71533123       2.71459659       0.00000000
Si      -2.71650411      -2.71411900       0.00051730       0.00000000
