10
Lattice="16.28999089631971 0.0 0.0 0.0 16.28999089631971 0.0 0.0 0.0 34.48637585096406" Properties=species:S:1:pos:R:3:initial_magmoms:R:1 pbc="T T T"
Si      -1.35713619      -1.35664577      -1.35759143       0.00000000
Si       1.35672894      -1.35631185       1.35903986       0.00000000
Si       1.35759231       1.35863976      -1.35755694       0.00000000
Si      -1.35770634       1.36139277       1.35955715       0.00000000
Si      -0.01081656      -2.69909240       2.72635645       0.00000000
Si       0.00009774      -2.71292261      -2.71438967       0.00000000
Si       2.71428867       0.00059947      -2.71401032       0.00000000
Si       2.71547784       2.71328358       0.00041384       0.00000000
Si      -2.71381626      -2.71525208      -0.00068973       0.00000000
Si       2.71533123      -2.71411178       0.00096562       0.00000000
