10
Lattice="16.28999089631971 0.0 0.0 0.0 16.28999089631971 0.0 0.0 0.0 34.48637585096406" Properties=species:S:1:pos:R:3:initial_magmoms:R:1 pbc="T T T"
Si      -2.08640691       1.03927268      -0.00358659       0.00000000
Si       0.07635123      -2.00797449      -1.25371841       0.00000000
Si       0.31400604      -1.08099463       2.09056527       0.00000000
Si       1.50920334       1.52034896      -1.07500991       0.00000000
Si      -1.49017662       2.66395583       1.66189938       0.00000000
Si      -2.00508723       1.72675955      -2.25903131       0.00000000
Si       3.37365900       1.16781707       0.21212582       0.00000000
Si      -1.55442438      -2.55541623       1.96282766       0.00000000
Si       2.45790036      -2.25276432      -1.62634391       0.00000000
Si       3.49839153      -1.24338312       0.30775659       0.00000000
