10
Lattice="16.28999089631971 0.0 0.0 0.0 16.28999089631971 0.0 0.0 0.0 34.48637585096406" Properties=species:S:1:pos:R:3:initial_magmoms:R:1 pbc="T T T"
Si       1.94474907       1.36980981       0.08283632       0.00000000
Si      -1.89866466       1.41897303      -0.22005769       0.00000000
Si      -0.10713933      -1.35089060      -1.96020670       0.00000000
Si      -0.66096675      -0.73238048       2.21126766       0.00000000
Si      -1.91132199       2.39405985      -2.38887259       0.00000000
Si       3.85975260       0.02601513       0.46249705       0.00000000
Si      -1.39567833       3.61763433       0.49946646       0.00000000
Si      -0.72379728      -3.38415695       1.89551022       0.00000000
Si       2.52543870       2.39922378      -1.96337945       0.00000000
Si       1.73721447      -2.80734434      -2.27627451       0.00000000
