10
Lattice="16.28999089631971 0.0 0.0 0.0 16.28999089631971 0.0 0.0 0.0 34.48637585096406" Properties=species:S:1:pos:R:3:initial_magmoms:R:1 pbc="T T T"
Si       1.34055297       1.35122292       1.37464495       0.00000000
Si      -1.30842909       1.32478425      -1.44127957       0.00000000
Si      -1.37453391      -1.36301688       1.36736832       0.00000000
Si       1.37868786      -1.34982198      -1.44880450       0.00000000
Si      -2.10515670      -0.63153072      -2.79036117       0.00000000
Si      -0.22731066      -2.49222339      -2.76797950       0.00000000
Si       2.72391606       2.67680538       0.00792152       0.00000000
Si       2.70023040      -2.71660185       0.00328310       0.00000000
Si      -2.73106737       2.69037495      -0.00075180       0.00000000
Si       2.70024669      -0.00329058       2.73120179       0.00000000
