10
Lattice="16.28999089631971 0.0 0.0 0.0 16.28999089631971 0.0 0.0 0.0 34.48637585096406" Properties=species:S:1:pos:R:3:initial_magmoms:R:1 pbc="T T T"
Si       1.35650088       1.35695700       1.35755694       0.00000000
Si      -1.35725022      -1.35760860       1.35714311       0.00000000
Si      -1.35741312       1.35765747      -1.35724657       0.00000000
Si       1.35782037      -1.35721764      -1.35735003       0.00000000
Si      -0.00048870      -2.71171485       2.71707961       0.00000000
Si       2.71480995      -2.71446786      -0.00003449       0.00000000
Si      -2.71494027      -2.71446786       0.00010346       0.00000000
Si       2.71608057       0.00167787      -2.71363097       0.00000000
Si      -2.71528236       0.00210141      -2.71452762       0.00000000
Si       0.00172674      -2.71533123      -2.71459659       0.00000000
