10
Lattice="16.28999089631971 0.0 0.0 0.0 16.28999089631971 0.0 0.0 0.0 34.48637585096406" Properties=species:S:1:pos:R:3:initial_magmoms:R:1 pbc="T T T"
Si       1.36326123       1.34350146      -1.37686933       0.00000000
Si      -1.35404109      -1.37300265      -1.37066177       0.00000000
Si       1.27156482      -1.42721577       1.41087291       0.00000000
Si      -1.37788965       1.30872231       1.48332883       0.00000000
Si      -0.71656452      -2.15708922       2.95238029       0.00000000
Si      -2.45299707      -0.30608910       2.85302498       0.00000000
Si       2.71296918       2.67533928      -0.01251856       0.00000000
Si      -2.72085354       2.69775432       0.01227716       0.00000000
Si       0.00408879       2.69874801      -2.73211568       0.00000000
Si      -2.71223613      -0.01529631      -2.73156390       0.00000000
