10
Lattice="16.28999089631971 0.0 0.0 0.0 16.28999089631971 0.0 0.0 0.0 34.48637585096406" Properties=species:S:1:pos:R:3:initial_magmoms:R:1 pbc="T T T"
Si      -1.07510742      -1.61481141       1.36969616       0.00000000
Si       1.35943308       1.31307174       1.47184486       0.00000000
Si       1.37788965      -1.30872231      -1.48332883       0.00000000
Si      -1.34296389       1.38903201      -1.47105167       0.00000000
Si       2.68594407       2.59498071      -0.08790582       0.00000000
Si       2.64945447      -2.73593808      -0.07245592       0.00000000
Si       0.66132513      -3.46581153       1.46905146       0.00000000
Si      -2.71085148      -2.71091664       0.04331491       0.00000000
Si       0.02384856      -2.68172496      -2.85399060       0.00000000
Si      -2.68959303       0.03446964      -2.85395611       0.00000000
