10
Lattice="16.28999089631971 0.0 0.0 0.0 16.28999089631971 0.0 0.0 0.0 34.48637585096406" Properties=species:S:1:pos:R:3:initial_magmoms:R:1 pbc="T T T"
Si      -1.63574406      -1.09610523      -1.32638124       0.00000000
Si       1.07510742       1.61481141      -1.36969616       0.00000000
Si      -1.55007495       0.92005920       1.72607856       0.00000000
Si       1.73643255      -1.85100012       0.09935530       0.00000000
Si      -0.27640872      -2.42105238      -2.85405957       0.00000000
Si       2.45299707       0.30608910      -2.85302498       0.00000000
Si       2.43454050       2.92788315       0.10214870       0.00000000
Si      -3.11802003      -2.24733582       0.13122073       0.00000000
Si       1.46644209      -2.84944680       2.30279455       0.00000000
Si      -3.72905793      -0.35368848       1.44742849       0.00000000
