10
Lattice="16.28999089631971 0.0 0.0 0.0 16.28999089631971 0.0 0.0 0.0 34.48637585096406" Properties=species:S:1:pos:R:3:initial_magmoms:R:1 pbc="T T T"
Si      -1.27016388       1.46583936      -1.26055706       0.00000000
Si      -1.38336309      -1.32558246       1.36672343       0.00000000
Si       1.32861240       1.39219227       1.36224020       0.00000000
Si       1.36889757      -1.37472939      -1.52223293       0.00000000
Si       2.70477531      -2.68957674      -0.02006418       0.00000000
Si      -2.72391606      -2.67680538      -0.00792152       0.00000000
Si      -0.02366937      -2.68009596       2.72328027       0.00000000
Si       2.69281845       0.03376917       2.72169389       0.00000000
Si      -2.73795804       0.03495834       2.72172838       0.00000000
Si       2.70327663       2.75954229      -0.02155745       0.00000000
