10
Lattice="16.28999089631971 0.0 0.0 0.0 16.28999089631971 0.0 0.0 0.0 34.48637585096406" Properties=species:S:1:pos:R:3:initial_magmoms:R:1 pbc="T T T"
Si      -1.25227746       1.67000193       1.07252689       0.00000000
Si      -1.35943308      -1.31307174      -1.47184486       0.00000000
Si       1.32651099       1.28190897      -1.55975068       0.00000000
Si       0.61281351      -1.06774434       2.21219879       0.00000000
Si       1.94582421       2.59081047       1.68555705       0.00000000
Si       1.53950274       0.83688246       3.28355314       0.00000000
Si       3.15949437       2.08477791      -0.32072347       0.00000000
Si      -2.43454050      -2.92788315      -0.10214870       0.00000000
Si       0.01845657      -2.62179405      -2.95517368       0.00000000
Si      -2.70239697       0.07596027      -2.94289653       0.00000000
