10
Lattice="16.28999089631971 0.0 0.0 0.0 16.28999089631971 0.0 0.0 0.0 34.48637585096406" Properties=species:S:1:pos:R:3:initial_magmoms:R:1 pbc="T T T"
Si      -1.59410682       1.13182920      -1.23275068       0.00000000
Si       1.25227746      -1.67000193      -1.07252689       0.00000000
Si      -0.45245475      -0.15165990       2.34645432       0.00000000
Si       1.19755935       2.08792188       0.45239253       0.00000000
Si      -0.58505535       2.16204138       2.07759839       0.00000000
Si       3.19810167       0.92080854       0.61303016       0.00000000
Si       1.86509097      -2.73774627       1.13967190       0.00000000
Si      -0.19735335       2.42365878      -2.68393819       0.00000000
Si       2.79178020      -0.83311947       2.21102625       0.00000000
Si      -2.84675895       2.22751089       0.73128401       0.00000000
