10
Lattice="16.28999089631971 0.0 0.0 0.0 16.28999089631971 0.0 0.0 0.0 34.48637585096406" Properties=species:S:1:pos:R:3:initial_magmoms:R:1 pbc="T T T"
Si       0.38138148       0.25964631      -2.36880151       0.00000000
Si       0.79294833       2.34558081      -0.06811063       0.00000000
Si       1.86331536      -1.55318634       0.64055030       0.00000000
Si      -2.29052061      -1.08582624      -0.65210325       0.00000000
Si      -1.98130383      -0.07780104       2.36274367       0.00000000
Si       2.34644418       1.78305453      -1.92140950       0.00000000
Si      -1.31973435      -3.04890156      -1.49970986       0.00000000
Si       0.65775762      -2.91836979       2.10106780       0.00000000
Si      -1.25814186       1.75977612      -3.01645601       0.00000000
Si      -3.10624236       0.60180147      -2.11846477       0.00000000
