10
Lattice="16.28999089631971 0.0 0.0 0.0 16.28999089631971 0.0 0.0 0.0 34.48637585096406" Properties=species:S:1:pos:R:3:initial_magmoms:R:1 pbc="T T T"
Si       1.84810050       1.15797465      -0.89799124       0.00000000
Si      -1.11536001      -0.39231207      -2.04152562       0.00000000
Si       0.81572175      -1.68762771       1.46636152       0.00000000
Si      -2.12758803       0.61238997       0.90333663       0.00000000
Si       3.48762384      -0.34215516      -0.25033674       0.00000000
Si      -0.72514935      -1.61591913       3.24234366       0.00000000
Si      -3.55855050      -1.06816788       0.11242565       0.00000000
Si      -2.39928894       1.62808776      -2.39359723       0.00000000
Si      -2.73271266       2.58181839      -0.30134212       0.00000000
Si       3.10624236      -0.60180147       2.11846477       0.00000000
