10
Lattice="16.28999089631971 0.0 0.0 0.0 16.28999089631971 0.0 0.0 0.0 34.48637585096406" Properties=species:S:1:pos:R:3:initial_magmoms:R:1 pbc="T T T"
Si       1.25424855      -1.43008281       1.34900432       0.00000000
Si       1.36754550       1.34278055      -1.36731659       0.00000000
Si      -1.34604270      -1.37311668      -1.37028242       0.00000000
Si      -1.24569630       1.43901187       1.52840255       0.00000000
Si       2.67996564      -0.18003708       2.70352646       0.00000000
Si      -2.69133606      -2.71911051      -0.02476123       0.00000000
Si      -2.70492192       2.70561329       0.02734771       0.00000000
Si       0.01081656       2.69909240      -2.72635645       0.00000000
Si      -2.70299970      -0.01615968      -2.72704618       0.00000000
Si       2.72929176       2.70254262       0.01758806       0.00000000
