10
Lattice="16.28999089631971 0.0 0.0 0.0 16.28999089631971 0.0 0.0 0.0 34.48637585096406" Properties=species:S:1:pos:R:3:initial_magmoms:R:1 pbc="T T T"
Si       1.59410682      -1.13182920       1.23275068       0.00000000
Si      -1.31588991      -1.36506942      -1.38576682       0.00000000
Si       1.39675347       1.29182958      -1.45118751       0.00000000
Si      -1.25265213       1.09568169       1.96403469       0.00000000
Si       2.79166617       0.95609268       1.68514321       0.00000000
Si       1.00905147       1.03021218       3.31034907       0.00000000
Si      -2.41803873       2.71029762       0.14801561       0.00000000
Si       2.82247056       2.54187531      -0.09666537       0.00000000
Si      -2.54883114       0.00280188      -2.82495306       0.00000000
Si       0.14398731      -2.72587086      -2.78267274       0.00000000
