10
Lattice="16.28999089631971 0.0 0.0 0.0 16.28999089631971 0.0 0.0 0.0 34.48637585096406" Properties=species:S:1:pos:R:3:initial_magmoms:R:1 pbc="T T T"
Si      -0.13983336      -1.96232598       1.25068361       0.00000000
Si      -0.47920293       1.69591932       1.58064943       0.00000000
Si      -2.07415683       0.45867753      -1.05214543       0.00000000
Si       1.99692594       0.17798454      -1.28454925       0.00000000
Si      -2.77519698       1.78295679       0.88392079       0.00000000
Si      -1.29254634       1.24853076      -3.11422494       0.00000000
Si       2.08168281      -2.34492921       1.94361874       0.00000000
Si       1.52076924      -1.03337244      -3.27148290       0.00000000
Si       2.39585175       2.46848627      -1.61389432       0.00000000
Si       0.18902916       2.97088290      -2.40021861       0.00000000
