10
Lattice="16.28999089631971 0.0 0.0 0.0 16.28999089631971 0.0 0.0 0.0 34.48637585096406" Properties=species:S:1:pos:R:3:initial_magmoms:R:1 pbc="T T T"
Si      -0.39646602      -2.29956060       0.51853744       0.00000000
Si       0.92823678       1.59031939       1.55688831       0.00000000
Si      -2.25114768       0.33480348      -0.80405030       0.00000000
Si       1.85167031       0.65494922      -1.46170586       0.00000000
Si       0.95351886      -0.92489637      -2.93144704       0.00000000
Si       0.31060143      -2.93374659      -1.63744853       0.00000000
Si      -1.89333783       2.59122586      -1.52571261       0.00000000
Si       3.57903422      -0.22183706      -0.04297005       0.00000000
Si      -1.06650630       2.66905949       2.22699345       0.00000000
Si       1.71942809       0.09180392       3.21202836       0.00000000
