10
Lattice="16.28999089631971 0.0 0.0 0.0 16.28999089631971 0.0 0.0 0.0 34.48637585096406" Properties=species:S:1:pos:R:3:initial_magmoms:R:1 pbc="T T T"
Si      -1.22676732       1.96448115       0.01882957       0.00000000
Si      -0.82789038      -0.84261328       2.04300853       0.00000000
Si      -0.73920762      -1.62724298      -1.57102773       0.00000000
Si       2.15463662      -0.33613112      -0.98506939       0.00000000
Si       1.09400612      -1.08436991      -2.99300526       0.00000000
Si      -0.28865880      -3.42816764      -0.09642396       0.00000000
Si       0.41037672      -2.78104739       2.09591066       0.00000000
Si      -3.07242432      -1.15430777       1.32958848       0.00000000
Si      -3.19715685       1.25689242       1.23395770       0.00000000
Si      -1.33954299       2.90612460      -2.13074192       0.00000000
