10
Lattice="16.28999089631971 0.0 0.0 0.0 16.28999089631971 0.0 0.0 0.0 34.48637585096406" Properties=species:S:1:pos:R:3:initial_magmoms:R:1 pbc="T T T"
Si      -1.58921982      -0.30338496       1.67938398       0.00000000
Si      -0.47092761       2.29522842      -0.32499979       0.00000000
Si      -0.12719232      -1.53098470      -1.81270839       0.00000000
Si       1.81460079      -0.88321122       1.25696013       0.00000000
Si      -1.37406150      -2.58296588       2.18481659       0.00000000
Si      -2.92353372       2.06982369      -0.74649251       0.00000000
Si      -2.49645879       0.56852100      -2.62175922       0.00000000
Si       2.08474437       0.78682329       2.93658552       0.00000000
Si       0.01195686      -0.28769769       3.68362981       0.00000000
Si       0.93602340      -3.02926301       1.92275447       0.00000000
