10
Lattice="16.28999089631971 0.0 0.0 0.0 16.28999089631971 0.0 0.0 0.0 34.48637585096406" Properties=species:S:1:pos:R:3:initial_magmoms:R:1 pbc="T T T"
Si       1.30904811       1.10944674      -1.59834095       0.00000000
Si      -1.33475373      -1.53086904      -1.43090951       0.00000000
Si       2.03330151      -0.84633066       1.38900854       0.00000000
Si      -1.23996222       2.13293115       1.08349356       0.00000000
Si       0.91368981       0.46452564       3.06521977       0.00000000
Si      -1.50250815       0.06240699       3.30965934       0.00000000
Si       2.06185788       3.02912550      -0.40790508       0.00000000
Si       2.64433941      -2.73997800       0.07280078       0.00000000
Si       0.04825098       2.51646291      -2.93344726       0.00000000
Si       2.64315024       2.23519977       1.74566683       0.00000000
