10
Lattice="16.28999089631971 0.0 0.0 0.0 16.28999089631971 0.0 0.0 0.0 34.48637585096406" Properties=species:S:1:pos:R:3:initial_magmoms:R:1 pbc="T T T"
Si      -1.27156482       1.42721577      -1.41087291       0.00000000
Si       1.42773705      -1.31856147      -1.41325247       0.00000000
Si       1.84142160       0.77867829       1.34445211       0.00000000
Si      -1.98812934      -0.72987345       1.54150738       0.00000000
Si      -2.64562632      -2.56235184       0.04055600       0.00000000
Si      -2.64945447       2.73593808       0.07245592       0.00000000
Si       2.76081291       2.63358801      -0.02855474       0.00000000
Si      -2.62560591       0.05421312      -2.78153469       0.00000000
Si       2.60265330      -2.80376964       0.04041806       0.00000000
Si       0.09083304      -2.65759947      -2.78691456       0.00000000
