10
Lattice="16.28999089631971 0.0 0.0 0.0 16.28999089631971 0.0 0.0 0.0 34.48637585096406" Properties=species:S:1:pos:R:3:initial_magmoms:R:1 pbc="T T T"
Si       0.56698974      -1.31113323       1.86619679       0.00000000
Si      -0.25984179      -1.38896685      -1.88650927       0.00000000
Si       1.73956023       1.56015846      -0.49136216       0.00000000
Si      -2.54049066       0.64005039      -0.01544991       0.00000000
Si      -2.44783314      -0.59008896      -2.25051317       0.00000000
Si       2.56173282      -2.38987332       1.19609164       0.00000000
Si      -2.74308939       0.72244521       2.43056664       0.00000000
Si      -1.31457042      -2.73693014       2.19647299       0.00000000
Si       1.95885621       2.88789120       1.52022927       0.00000000
Si       0.91937502       0.10210572       3.71349503       0.00000000
