10
Lattice="16.28999089631971 0.0 0.0 0.0 16.28999089631971 0.0 0.0 0.0 34.48637585096406" Properties=species:S:1:pos:R:3:initial_magmoms:R:1 pbc="T T T"
Si      -0.58068963      -1.02941397       2.04621577       0.00000000
Si       0.42707493      -1.50130269      -1.87526671       0.00000000
Si       2.45260611       0.22540473       0.42149272       0.00000000
Si      -2.26804041       1.14214077      -0.48905157       0.00000000
Si      -1.98120609       1.09170693      -2.77449946       0.00000000
Si       1.33431390      -2.37320865       2.42587649       0.00000000
Si      -1.43738073      -1.14877080      -3.16240243       0.00000000
Si       2.92353372      -2.06982369       0.74649251       0.00000000
Si       3.27503934       0.81728559      -1.63858658       0.00000000
Si       1.89012870       2.66965407      -1.91289136       0.00000000
