10
Lattice="16.28999089631971 0.0 0.0 0.0 16.28999089631971 0.0 0.0 0.0 34.48637585096406" Properties=species:S:1:pos:R:3:initial_magmoms:R:1 pbc="T T T"
Si       1.35431802      -1.35795069      -1.35762592       0.00000000
Si       1.35589815       1.35715248       1.35824667       0.00000000
Si      -1.36034532      -1.35804843       1.35790181       0.00000000
Si      -1.36420605       1.35842310      -1.35945370       0.00000000
Si       2.69370513      -0.00663003      -2.72076276       0.00000000
Si      -2.69281845      -0.03376917      -2.72169389       0.00000000
Si       2.71096551      -2.71454931       0.00117254       0.00000000
Si       2.71142636       2.71609686       0.00317275       0.00000000
Si       2.71253526      -0.00052128       2.71532081       0.00000000
Si      -0.00247608       2.71443528       2.71552772       0.00000000
