10
Lattice="16.28999089631971 0.0 0.0 0.0 16.28999089631971 0.0 0.0 0.0 34.48637585096406" Properties=species:S:1:pos:R:3:initial_magmoms:R:1 pbc="T T T"
Si       0.92668923       1.90462680       1.07135435       0.00000000
Si       2.09912940      -1.31782842      -0.25040571       0.00000000
Si      -0.61281351       1.06774434      -2.21219879       0.00000000
Si      -1.69412742      -1.11392649       1.88499187       0.00000000
Si      -1.86509097       2.73774627      -1.13967190       0.00000000
Si      -0.59795703       2.25681660       2.79929518       0.00000000
Si      -2.31754572       2.58608637       1.20678242       0.00000000
Si       3.19440384       1.52018280       1.41073497       0.00000000
Si      -1.08809055       0.18798660       3.73539389       0.00000000
Si       1.33301070       3.65855481      -0.52664174       0.00000000
