10
Lattice="16.28999089631971 0.0 0.0 0.0 16.28999089631971 0.0 0.0 0.0 34.48637585096406" Properties=species:S:1:pos:R:3:initial_magmoms:R:1 pbc="T T T"
Si      -1.35433664       1.35745156      -1.35621197       0.00000000
Si       1.35801419       1.35635361       1.35717759       0.00000000
Si      -1.35651950      -1.35859384       1.35707413       0.00000000
Si       1.35847031      -1.35919657      -1.36169531       0.00000000
Si       0.00350002       2.70128859      -2.70077100       0.00000000
Si      -2.71383488      -0.01183857      -2.70828903       0.00000000
Si       2.71501028       2.71270788      -0.00031038       0.00000000
Si       0.00084363       2.71344093       2.71445865       0.00000000
Si      -2.71473083       2.71373415       0.00065524       0.00000000
Si      -2.71427471      -0.00147441       2.71463108       0.00000000
