10
Lattice="16.28999089631971 0.0 0.0 0.0 16.28999089631971 0.0 0.0 0.0 34.48637585096406" Properties=species:S:1:pos:R:3:initial_magmoms:R:1 pbc="T T T"
Si      -1.61785764       0.71143317      -1.53160978       0.00000000
Si       1.65780302      -1.42928460      -0.94772062       0.00000000
Si       0.80040493       1.81351683       1.39807846       0.00000000
Si      -1.46412891      -1.59532857       1.13153311       0.00000000
Si       2.08294270      -2.68656309       0.98213805       0.00000000
Si      -3.52282653       0.49280508      -0.12439243       0.00000000
Si       1.56161709       0.54986895       3.25492943       0.00000000
Si      -1.25156070       2.95010271       1.89495844       0.00000000
Si      -0.07921827      -3.44769705       1.40583790       0.00000000
Si      -1.05298560       2.87006994      -2.12974182       0.00000000
