10
Lattice="16.28999089631971 0.0 0.0 0.0 16.28999089631971 0.0 0.0 0.0 34.48637585096406" Properties=species:S:1:pos:R:3:initial_magmoms:R:1 pbc="T T T"
Si       1.78025265       1.52236566      -0.10187281       0.00000000
Si       0.76691691      -1.94841432       1.10173687       0.00000000
Si      -0.49101318      -0.93493197      -2.12122368       0.00000000
Si      -1.96139745       1.20290247       0.68079593       0.00000000
Si      -1.19983995      -1.97685666       2.46229413       0.00000000
Si       1.56768444      -3.02306562      -0.86529814       0.00000000
Si      -0.65487429       0.03135825       3.65604069       0.00000000
Si       1.48854762       2.68226253      -2.14746782       0.00000000
Si       1.60153506       2.73852819       2.00110756       0.00000000
Si      -3.78431361      -0.21897018       0.09238905       0.00000000
