10
Lattice="16.28999089631971 0.0 0.0 0.0 16.28999089631971 0.0 0.0 0.0 34.48637585096406" Properties=species:S:1:pos:R:3:initial_magmoms:R:1 pbc="T T T"
Si      -1.96157664       1.26972405      -0.52557266       0.00000000
Si       1.87079640       0.19476324      -1.48736374       0.00000000
Si       0.74716107       0.16343757       2.35491388       0.00000000
Si      -0.54709965      -2.09131020      -2.23544262       0.00000000
Si       3.12464096      -1.08405063       0.14198049       0.00000000
Si      -1.03327470      -0.78120324       3.56077345       0.00000000
Si      -2.44470546      -2.06651682       2.03638715       0.00000000
Si       1.32166539      -1.16291052      -3.37090718       0.00000000
Si       2.61709343      -1.30950423       2.48699125       0.00000000
Si      -1.67022999       2.45348577      -2.62789779       0.00000000
