10
Lattice="16.28999089631971 0.0 0.0 0.0 16.28999089631971 0.0 0.0 0.0 34.48637585096406" Properties=species:S:1:pos:R:3:initial_magmoms:R:1 pbc="T T T"
Si       1.52458110       1.72864593      -0.01058732       0.00000000
Si      -2.23133904       0.68437548      -0.15174014       0.00000000
Si       0.29170503      -1.15989687       2.04559501       0.00000000
Si       0.49028013      -1.23992964      -1.97910524       0.00000000
Si       2.34367066      -2.29648275       1.54871503       0.00000000
Si       3.39163406       0.82176534      -1.02645306       0.00000000
Si      -1.35249354      -0.61553394      -3.34193861       0.00000000
Si      -0.07459191      -3.39856641      -1.38097321       0.00000000
Si      -1.48854762      -2.68226253       2.14746782       0.00000000
Si      -3.20183208      -0.62143092      -1.84433241       0.00000000
