10
Lattice="16.28999089631971 0.0 0.0 0.0 16.28999089631971 0.0 0.0 0.0 34.48637585096406" Properties=species:S:1:pos:R:3:initial_magmoms:R:1 pbc="T T T"
Si      -0.10951767       1.63533681       1.64382851       0.00000000
Si      -2.04509547      -1.12431951      -0.07190413       0.00000000
Si       0.06553371       1.19518101      -2.03873222       0.00000000
Si       2.02343696      -1.18956096       0.34172569       0.00000000
Si       2.84306831      -0.65453220      -1.78039463       0.00000000
Si       2.35394477       1.66689054      -2.15298565       0.00000000
Si      -1.86637788      -2.34048204      -2.17488451       0.00000000
Si      -3.63100842       0.60918084       0.48981027       0.00000000
Si      -2.41960257       2.08163394       1.90589063       0.00000000
Si       1.49593092      -3.38304204       1.06862993       0.00000000
