10
Lattice="16.28999089631971 0.0 0.0 0.0 16.28999089631971 0.0 0.0 0.0 34.48637585096406" Properties=species:S:1:pos:R:3:initial_magmoms:R:1 pbc="T T T"
Si      -1.35706126       1.35663120      -1.35717759       0.00000000
Si       1.35754344      -1.35697329      -1.35762592       0.00000000
Si       1.35769005       1.35746199       1.35707413       0.00000000
Si      -1.35737239      -1.35961227       1.35659132       0.00000000
Si      -0.00197109      -2.71221984       2.71245844       0.00000000
Si      -2.71115189      -0.00055386       2.71625194       0.00000000
Si      -2.71567577       0.00151497      -2.71225152       0.00000000
Si      -2.71421253       2.71450044       0.00034486       0.00000000
Si       0.00285075       2.71394658      -2.71480351       0.00000000
Si       2.71489140       0.00110772      -2.71387238       0.00000000
