10
Lattice="16.28999089631971 0.0 0.0 0.0 16.28999089631971 0.0 0.0 0.0 34.48637585096406" Properties=species:S:1:pos:R:3:initial_magmoms:R:1 pbc="T T T"
Si      -2.00067590      -0.76517388       1.10277146       0.00000000
Si      -1.87504905       0.68427774      -1.38049040       0.00000000
Si       0.09708840       2.09098440       1.37062729       0.00000000
Si       1.23996222      -2.13293115      -1.08349356       0.00000000
Si      -0.26254593      -2.07052416       2.22616578       0.00000000
Si      -0.08524557       1.75650183      -2.61741393       0.00000000
Si       2.15365203      -1.66840551       1.98172621       0.00000000
Si       3.30182010       0.89619435      -1.49139864       0.00000000
Si       1.74843828       3.00710142      -1.52698860       0.00000000
Si       2.54901033      -1.02348441      -2.68183452       0.00000000
