10
Lattice="16.28999089631971 0.0 0.0 0.0 16.28999089631971 0.0 0.0 0.0 34.48637585096406" Properties=species:S:1:pos:R:3:initial_magmoms:R:1 pbc="T T T"
Si      -1.04523549       1.51992216       1.48039748       0.00000000
Si       2.00067590       0.76517388      -1.10277146       0.00000000
Si       1.73812997      -1.30535028       1.12339432       0.00000000
Si      -2.14050993      -1.31808906      -0.18074320       0.00000000
Si       0.12562685       1.44945162      -2.48326185       0.00000000
Si      -1.63315788      -2.55959883       1.81726059       0.00000000
Si       2.09776430       2.85615828       0.26785583       0.00000000
Si       1.73840690       0.02637351       3.10405145       0.00000000
Si      -1.72100985      -2.20284783      -2.34238493       0.00000000
Si       0.61044657      -3.45295872       1.24199303       0.00000000
