10
Lattice="16.28999089631971 0.0 0.0 0.0 16.28999089631971 0.0 0.0 0.0 34.48637585096406" Properties=species:S:1:pos:R:3:initial_magmoms:R:1 pbc="T T T"
Si      -1.35699610      -1.35635427       1.35748797       0.00000000
Si       1.35829278       1.35858600       1.35721208       0.00000000
Si       1.36055709      -1.35673871      -1.35793629       0.00000000
Si      -1.35889714       1.35816246      -1.36266093       0.00000000
Si      -2.71151027      -0.01141929      -2.70046062       0.00000000
Si      -2.71501028      -2.71270788       0.00031038       0.00000000
Si      -2.71416665       0.00073305       2.71476902       0.00000000
Si       0.00110772      -2.71405379       2.71532081       0.00000000
Si       2.71583622      -2.71366288       0.00062076       0.00000000
Si       2.71567332       0.00131949       2.71480351       0.00000000
