10
Lattice="16.28999089631971 0.0 0.0 0.0 16.28999089631971 0.0 0.0 0.0 34.48637585096406" Properties=species:S:1:pos:R:3:initial_magmoms:R:1 pbc="T T T"
Si       0.52750604       2.19348108      -0.72690424       0.00000000
Si      -0.54913101      -1.35767376      -1.88354344       0.00000000
Si      -1.87079640      -0.19476324       1.48736374       0.00000000
Si       1.25384456      -1.27881387       1.62934422       0.00000000
Si      -2.41789605      -2.28607344      -0.74807888       0.00000000
Si       3.44638082      -1.17446013       0.87716146       0.00000000
Si       3.47218418      -0.53530569      -1.37293788       0.00000000
Si      -1.49593092       3.38304204      -1.06862993       0.00000000
Si       2.03626955       3.23861490       0.74369911       0.00000000
Si      -1.31034316      -0.09402588      -3.74039442       0.00000000
