10
Lattice="16.28999089631971 0.0 0.0 0.0 16.28999089631971 0.0 0.0 0.0 34.48637585096406" Properties=species:S:1:pos:R:3:initial_magmoms:R:1 pbc="T T T"
Si      -1.67507825       1.07144217      -1.25036288       0.00000000
Si       1.34165123       1.37104785       1.37394488       0.00000000
Si      -1.36301072      -1.35322659       1.38001448       0.00000000
Si       1.48013414      -1.28860416      -1.58998835       0.00000000
Si       2.71146755      -2.67428043      -0.00043108       0.00000000
Si      -3.47354312      -0.79905708      -1.37687967       0.00000000
Si      -2.71815953      -2.68993512      -0.00843882       0.00000000
Si       2.70133517       0.01282023       2.73543327       0.00000000
Si      -0.01719135      -2.69961138       2.73798527       0.00000000
Si       2.72215379       2.71714545       0.00006208       0.00000000
