10
Lattice="16.28999089631971 0.0 0.0 0.0 16.28999089631971 0.0 0.0 0.0 34.48637585096406" Properties=species:S:1:pos:R:3:initial_magmoms:R:1 pbc="T T T"
Si      -1.35676315       1.35374787      -1.36331617       0.00000000
Si       1.35966114      -1.36020034      -1.36148839       0.00000000
Si       1.35731538       1.35663120       1.38487017       0.00000000
Si      -1.36036161      -1.36529585       1.38318034       0.00000000
Si      -2.71287863       2.71221984      -0.00031038       0.00000000
Si       2.71564074       2.71081890      -0.00068973       0.00000000
Si      -2.71108673      -2.71814662      -0.00117254       0.00000000
Si       0.00079821       2.71174743      -2.72018339       0.00000000
Si       2.71389771      -2.71921094      -0.00334518       0.00000000
Si      -2.71406891      -0.00337203      -2.72021787       0.00000000
