10
Lattice="16.290000149 0.0 0.0 0.0 16.290000149 0.0 0.0 0.0 29.1751946751" Properties=species:S:1:pos:R:3:initial_magmoms:R:1 pbc="T T T"
Si      -1.34782484      -1.33213105       1.37270166       0.00000000
Si       1.36537894       1.36695907       1.35618850       0.00000000
Si      -1.37977767       1.33812577      -1.37620560       0.00000000
Si       1.38606724      -1.36958176      -1.34362275       0.00000000
Si       2.66849750       0.12298950      -2.62105018       0.00000000
Si      -2.67726152      -2.69153156      -0.00617931       0.00000000
Si      -2.59846924      -0.15547176      -2.76862970       0.00000000
Si      -2.70014897       0.05654259       2.70081487       0.00000000
Si       0.02088378      -2.68118741       2.73433717       0.00000000
Si      -0.03833037       2.79593418      -2.61848102       0.00000000
