10
Lattice="16.290000149 0.0 0.0 0.0 16.290000149 0.0 0.0 0.0 29.1751946751" Properties=species:S:1:pos:R:3:initial_magmoms:R:1 pbc="T T T"
Si      -1.39483126       1.43317792      -1.22392859       0.00000000
Si      -1.32393718      -1.38284182       1.37802030       0.00000000
Si       1.19426878      -1.47396808      -1.42722135       0.00000000
Si       1.31375593       1.44454834       1.36352606       0.00000000
Si       0.00100998       2.65513970      -2.65914394       0.00000000
H        3.29040084       1.77813497      -0.47447619       0.00000000
Si       2.53534304      -0.12318498      -2.80580765       0.00000000
Si       2.67805973      -2.68965821       0.01204936       0.00000000
Si      -2.93143440       0.16428465      -2.48540566       0.00000000
Si       2.74372473       0.07882731       2.69525408       0.00000000
