10
Lattice="16.290000149 0.0 0.0 0.0 16.290000149 0.0 0.0 0.0 29.1751946751" Properties=species:S:1:pos:R:3:initial_magmoms:R:1 pbc="T T T"
Si       1.32557464      -1.35518140      -1.38695958       0.00000000
Si      -1.35284185       1.35573526      -1.36178139       0.00000000
Si      -1.34456653      -1.37430586       1.35565460       0.00000000
Si       1.35977712       1.37930689       1.34176720       0.00000000
Si       2.66770938      -2.71070489      -0.02202727       0.00000000
Si      -2.72594225      -0.02221956       2.68300925       0.00000000
Si      -2.69903117       2.72552880      -0.01832202       0.00000000
Si       2.67461634      -0.00058644      -2.75130838       0.00000000
Si      -0.00502991       2.71083521      -2.71562712       0.00000000
Si      -2.72007785      -2.71668332      -0.00507648       0.00000000
