10
Lattice="16.290000149 0.0 0.0 0.0 16.290000149 0.0 0.0 0.0 29.1751946751" Properties=species:S:1:pos:R:3:initial_magmoms:R:1 pbc="T T T"
Si       1.55224153       0.78185485       1.60151396       0.00000000
Si       1.17514432       0.15240924      -2.05212484       0.00000000
Si      -0.92041759      -1.83689300       1.18147868       0.00000000
Si      -1.93671812       1.47672109      -0.33781958       0.00000000
Si      -1.95740642      -0.34959969       2.64677366       0.00000000
H        1.79476706      -2.81847954      -0.14672205       0.00000000
H       -2.82947529       0.48457863       1.73000152       0.00000000
Si      -0.05857884       0.94346794       3.28308466       0.00000000
Si       2.38904255       2.72142697       0.59677861       0.00000000
Si       2.68007969       2.00845928      -1.61694764       0.00000000
