10
Lattice="16.290000149 0.0 0.0 0.0 16.290000149 0.0 0.0 0.0 29.1751946751" Properties=species:S:1:pos:R:3:initial_magmoms:R:1 pbc="T T T"
Si      -1.53469720       1.32676350       1.16925428       0.00000000
Si       1.39002571       1.31768997      -1.37482270       0.00000000
Si      -1.24370893      -1.39666389      -1.44084616       0.00000000
Si       0.97270849      -0.88756880       1.98438004       0.00000000
Si      -0.10360440       2.64749155       2.38825226       0.00000000
Si      -0.78758893      -1.15846010       3.47097291       0.00000000
Si      -2.57276117      -2.77036702      -0.11465851       0.00000000
Si      -2.69822675      -0.08117307       2.69502943       0.00000000
Si       1.09084357      -3.20369731       1.78190419       0.00000000
Si       0.03909600       2.65838956      -2.77339401       0.00000000
