10
Lattice="16.290000149 0.0 0.0 0.0 16.290000149 0.0 0.0 0.0 29.1751946751" Properties=species:S:1:pos:R:3:initial_magmoms:R:1 pbc="T T T"
Si      -2.29382750      -0.02557530       0.38123227       0.00000000
H       -0.91839763       1.64144557      -1.46544085       0.00000000
Si       0.99795799       2.13517919       0.40293861       0.00000000
Si       0.97031386      -0.38176430      -2.15733060       0.00000000
Si       0.04790889      -2.05281695       1.29721668       0.00000000
H       -2.89341354       1.28578600      -0.06646109       0.00000000
Si       2.81976645       1.24514245       1.55136180       0.00000000
Si       2.88095169      -1.45905133      -1.38138712       0.00000000
Si      -3.09343845      -1.67251341      -1.05290360       0.00000000
Si       3.53064576      -0.79122486       0.76269794       0.00000000
