10
Lattice="16.290000149 0.0 0.0 0.0 16.290000149 0.0 0.0 0.0 29.1751946751" Properties=species:S:1:pos:R:3:initial_magmoms:R:1 pbc="T T T"
Si       1.35513253       1.33970590      -1.31456717       0.00000000
Si       1.43552368      -1.32028822       1.27851538       0.00000000
Si      -1.33538905       1.44249580       1.28461300       0.00000000
Si      -1.30839652      -1.29310021      -1.47120587       0.00000000
Si      -0.05092254       2.70676271      -2.56440333       0.00000000
Si       0.05896980      -2.64065789       2.63930481       0.00000000
Si      -2.69672807       0.07949520       2.61138415       0.00000000
Si      -2.66957264      -2.64621278      -0.12037685       0.00000000
Si       2.77013082       0.08364915       2.61584795       0.00000000
Si       2.78137092      -2.59963967      -0.17887312       0.00000000
