10
Lattice="16.290000149 0.0 0.0 0.0 16.290000149 0.0 0.0 0.0 29.1751946751" Properties=species:S:1:pos:R:3:initial_magmoms:R:1 pbc="T T T"
Si       1.38137572      -1.35208630      -1.32735466       0.00000000
Si      -1.31561299       1.31792617      -1.43186020       0.00000000
Si       1.40160790       1.37780821       1.29765431       0.00000000
Si      -1.36704052      -1.42584742       1.29998832       0.00000000
Si      -2.81908227       0.03769506       2.37453992       0.00000000
H       -1.89381026       1.01069677       3.03346169       0.00000000
Si       0.00586440      -2.69446376      -2.68808574       0.00000000
Si       2.77261634       0.03790683       2.61112157       0.00000000
Si      -2.67149486       2.71383257      -0.18114878       0.00000000
Si       2.72594225       0.02221956      -2.68300925       0.00000000
