10
Lattice="16.290000149 0.0 0.0 0.0 16.290000149 0.0 0.0 0.0 29.1751946751" Properties=species:S:1:pos:R:3:initial_magmoms:R:1 pbc="T T T"
Si       1.37655388       1.32036967      -1.36078943       0.00000000
Si      -1.37694484      -1.32598972      -1.35667573       0.00000000
Si       1.35035956      -1.36785502       1.34430545       0.00000000
Si      -1.36717084       1.38184813       1.31451757       0.00000000
Si      -0.05896980       2.64065789      -2.63930481       0.00000000
Si       0.04054581      -2.65548179      -2.65780188       0.00000000
Si      -2.72771165       0.01534518       2.64837830       0.00000000
Si       2.72059292      -0.00265527       2.66856753       0.00000000
Si      -0.01741401       2.73486296       2.67653236       0.00000000
Si       2.73434169      -2.67861359      -0.01875965       0.00000000
