10
Lattice="16.290000149 0.0 0.0 0.0 16.290000149 0.0 0.0 0.0 29.1751946751" Properties=species:S:1:pos:R:3:initial_magmoms:R:1 pbc="T T T"
Si      -1.31139388       1.35404110      -1.39224029       0.00000000
Si       1.37300755       1.36849033       1.33473598       0.00000000
Si       1.38515500      -1.34707387      -1.34897348       0.00000000
Si      -1.38440566      -1.34490078       1.36609932       0.00000000
Si       0.08263037      -2.64268307       2.63752512       0.00000000
Si      -2.63953388       2.71795394      -0.01986831       0.00000000
Si      -2.68864823      -0.01267362      -2.71317640       0.00000000
Si       0.02453274      -2.71186148      -2.69745097       0.00000000
Si       2.72528444       0.02632464       2.69873468       0.00000000
Si      -2.63583605       0.05587470       2.79565468       0.00000000
