10
Lattice="16.290000149 0.0 0.0 0.0 16.290000149 0.0 0.0 0.0 29.1751946751" Properties=species:S:1:pos:R:3:initial_magmoms:R:1 pbc="T T T"
H       -0.84955609       0.77519224       0.99712063       0.00000000
Si       1.14429106       1.61792281      -1.21730582       0.00000000
Si       1.40026968      -1.18827406       1.44665203       0.00000000
Si      -1.60461388      -1.12612771      -1.33421083       0.00000000
Si      -1.99308152       2.43931349       1.74717170       0.00000000
Si      -0.62929900       2.78365152      -2.23280682       0.00000000
Si       2.59371663       0.40257477      -2.57161836       0.00000000
Si      -0.07003071      -2.36806103       2.85222538       0.00000000
Si      -2.24011937       2.94526461      -0.55123613       0.00000000
Si       2.86888243      -2.46128870       0.10392204       0.00000000
