10
Lattice="16.290000149 0.0 0.0 0.0 16.290000149 0.0 0.0 0.0 29.1751946751" Properties=species:S:1:pos:R:3:initial_magmoms:R:1 pbc="T T T"
Si       1.43236179      -1.39772065       1.15408318       0.00000000
Si      -1.24135731      -1.36216199      -1.44189647       0.00000000
Si       1.40129676       1.30684571      -1.38068691       0.00000000
Si      -1.22599844       1.26310706       1.61849392       0.00000000
H        1.63238671       1.56057876       2.14052568       0.00000000
Si       2.23197274       0.24921745       2.58821905       0.00000000
Si      -2.52433263       2.60603839       0.11973500       0.00000000
Si      -2.54415756      -2.71354261      -0.08621270       0.00000000
Si       0.04901987       2.64901141      -2.74468561       0.00000000
Si      -2.70839334      -0.06437971      -2.71332228       0.00000000
