10
Lattice="16.290000149 0.0 0.0 0.0 16.290000149 0.0 0.0 0.0 29.1751946751" Properties=species:S:1:pos:R:3:initial_magmoms:R:1 pbc="T T T"
Si      -1.89382655      -0.00491469       1.33677824       0.00000000
Si      -1.24848190       1.10075278      -1.61394259       0.00000000
Si       1.58418622       1.66886653       0.45355758       0.00000000
Si       0.43802181      -2.28445586       0.30450151       0.00000000
H        1.84808423       0.61487909      -2.36076923       0.00000000
H       -2.07084998       1.38201592       1.94691909       0.00000000
Si      -1.05948532      -1.24570771       3.05128482       0.00000000
Si       2.04884219      -2.44606896      -1.37706919       0.00000000
Si       0.85481776       2.32691738       2.62694124       0.00000000
Si      -2.59634909       2.64499592      -0.46210591       0.00000000
