10
Lattice="16.290000149 0.0 0.0 0.0 16.290000149 0.0 0.0 0.0 29.1751946751" Properties=species:S:1:pos:R:3:initial_magmoms:R:1 pbc="T T T"
Si       1.21252987      -1.40504509       1.45794079       0.00000000
Si      -1.49027437      -1.24589179      -1.37607723       0.00000000
Si      -1.47812203       1.29849579       1.34121287       0.00000000
Si       1.62064324       1.47739550      -0.94221291       0.00000000
Si       2.55160046      -2.75819025       0.11547542       0.00000000
Si       0.88293430       3.66272508      -0.53428534       0.00000000
H        1.13314870      -1.09410157      -3.47374455       0.00000000
Si      -2.80564302      -2.61628805       0.09852463       0.00000000
Si      -0.18373491       2.58439223       2.84495784       0.00000000
H        3.07537284      -0.70205014      -2.23651207       0.00000000
