10
Lattice="16.290000149 0.0 0.0 0.0 16.290000149 0.0 0.0 0.0 29.1751946751" Properties=species:S:1:pos:R:3:initial_magmoms:R:1 pbc="T T T"
Si      -0.83434123       1.24079302      -1.71450657       0.00000000
Si      -1.83078425      -1.01926531       0.94461695       0.00000000
Si       1.04365144       1.84886778       0.95359416       0.00000000
Si       1.74454499      -1.54469926      -0.44837548       0.00000000
H       -1.01136466       2.62772363      -1.10436573       0.00000000
Si      -0.42472917      -2.38632212       2.19445311       0.00000000
Si       1.49750713      -1.03874815      -2.74678331       0.00000000
Si       2.46163079       0.50753418       2.20442519       0.00000000
Si       1.05948532       1.24570771      -3.05128482       0.00000000
Si       0.99934264      -0.92797615       3.41595141       0.00000000
