10
Lattice="16.290000149 0.0 0.0 0.0 16.290000149 0.0 0.0 0.0 29.1751946751" Properties=species:S:1:pos:R:3:initial_magmoms:R:1 pbc="T T T"
Si       1.42672708      -1.36112725      -1.26591170       0.00000000
Si       1.35669637       1.34718301       1.35483769       0.00000000
Si      -1.32765130      -1.38386809       1.37969496       0.00000000
Si      -1.33959187       1.33576372      -1.41972332       0.00000000
Si       0.03704346      -2.70754463      -2.53824777       0.00000000
Si      -2.68543910       2.61511517       0.03766518       0.00000000
Si       2.69511536       2.70115895      -0.02932107       0.00000000
Si       2.70456356      -0.03298725       2.70693291       0.00000000
Si       0.01205460       2.67910229       2.73774192       0.00000000
Si      -2.71256195      -0.07148052      -2.72781943       0.00000000
