10
Lattice="16.290000149 0.0 0.0 0.0 16.290000149 0.0 0.0 0.0 29.1751946751" Properties=species:S:1:pos:R:3:initial_magmoms:R:1 pbc="T T T"
Si      -1.33846786      -1.33521149       1.32254075       0.00000000
Si       1.49742568      -1.22808519      -1.28767639       0.00000000
Si      -1.26341983       1.36736632      -1.39868801       0.00000000
Si       1.41827257       1.43918893       1.22454127       0.00000000
Si       0.65344078       2.14796684      -2.50189548       0.00000000
H       -0.55759042      -0.44922933      -3.34563627       0.00000000
Si       2.36807732       0.49567212      -2.66561413       0.00000000
Si       0.09974367      -2.67849956       2.57666567       0.00000000
Si      -2.66703140       0.08966016       2.60187304       0.00000000
Si      -2.69832449      -2.60916572      -0.09215277       0.00000000
