10
Lattice="16.290000149 0.0 0.0 0.0 16.290000149 0.0 0.0 0.0 29.1751946751" Properties=species:S:1:pos:R:3:initial_magmoms:R:1 pbc="T T T"
Si       1.48854763      -1.18913743      -1.26130202       0.00000000
Si       1.46404747       1.02180655       1.47638155       0.00000000
Si      -1.16370874       1.60813252      -1.21345470       0.00000000
Si      -1.07843059      -1.40085856       1.60574436       0.00000000
H        2.10406529      -2.05355000      -0.18324940       0.00000000
Si      -1.98700535       0.38783232       2.86267010       0.00000000
Si      -0.13364316       1.86237056       2.97840810       0.00000000
Si       0.05745483      -2.50986548      -2.48030000       0.00000000
H       -2.99478621      -1.89459218      -0.26263510       0.00000000
Si       2.48767850      -0.78408658       2.43846277       0.00000000
