10
Lattice="16.290000149 0.0 0.0 0.0 16.290000149 0.0 0.0 0.0 29.1751946751" Properties=species:S:1:pos:R:3:initial_magmoms:R:1 pbc="T T T"
Si       1.39669321      -1.34530966       1.32408704       0.00000000
Si       1.37478316       1.34653141      -1.34611431       0.00000000
Si      -1.31880733      -1.37062432      -1.38620102       0.00000000
Si      -1.36390796       1.34965909       1.37304301       0.00000000
Si       0.04599970      -2.70215264       2.67119330       0.00000000
Si      -2.66661927      -2.72572427      -0.03235529       0.00000000
Si       0.02497909       2.70290198      -2.69882221       0.00000000
Si      -2.70669267       2.70146358       0.00271329       0.00000000
Si      -2.68856190      -0.01845657      -2.72753060       0.00000000
Si       2.68749653      -0.02775816      -2.73222781       0.00000000
