10
Lattice="16.290000149 0.0 0.0 0.0 16.290000149 0.0 0.0 0.0 29.1751946751" Properties=species:S:1:pos:R:3:initial_magmoms:R:1 pbc="T T T"
Si      -1.28070678       1.36925108      -1.38494941       0.00000000
Si       1.29955105       1.33051508       1.42178893       0.00000000
Si      -1.41345725      -1.38697948       1.25584042       0.00000000
Si       1.32753727      -1.31276224      -1.42196981       0.00000000
Si       2.64604988       2.66014073       0.07777523       0.00000000
Si       2.65421117      -2.70386309      -0.04856503       0.00000000
Si      -0.04885371      -2.73375524       2.62684117       0.00000000
Si      -0.09886401      -2.67302612      -2.70190749       0.00000000
Si      -2.70994317       2.67848327      -0.03253909       0.00000000
Si      -2.69416224      -0.04219110       2.71031140       0.00000000
