10
Lattice="16.290000149 0.0 0.0 0.0 16.290000149 0.0 0.0 0.0 29.1751946751" Properties=species:S:1:pos:R:3:initial_magmoms:R:1 pbc="T T T"
Si       1.22599844      -1.26310706      -1.61849392       0.00000000
Si      -1.29833419       1.34293132      -1.49875893       0.00000000
Si      -1.45955632      -1.41347843       1.33680742       0.00000000
Si       1.31123424       1.71160661       1.13558610       0.00000000
H        2.85838515       0.29747169       0.52203176       0.00000000
H        0.17004480       2.67576284       1.43250206       0.00000000
H       -0.94633987       0.84320299       3.41889519       0.00000000
Si      -2.63698124      -2.58588603      -0.35736696       0.00000000
Si       3.45797118      -1.01388961       0.96972512       0.00000000
Si       2.65836024      -2.66082772      -0.46441075       0.00000000
