10
Lattice="16.290000149 0.0 0.0 0.0 16.290000149 0.0 0.0 0.0 29.1751946751" Properties=species:S:1:pos:R:3:initial_magmoms:R:1 pbc="T T T"
Si      -1.17742492      -1.17240760      -1.69417438       0.00000000
Si       0.59364019      -1.69734145       1.55220788       0.00000000
Si      -2.01018602       0.86484751       0.97167986       0.00000000
Si       1.45955632       1.41347843      -1.33680742       0.00000000
H        0.51321645       2.25668141       2.08208777       0.00000000
Si      -2.76060117       2.20553081      -0.80059652       0.00000000
Si      -2.45185679      -2.64320402      -0.42820433       0.00000000
Si      -2.62316243       0.45508885      -2.60922519       0.00000000
Si      -3.49164750      -1.00886089       0.88039067       0.00000000
Si      -0.91129519      -3.55339149       1.11703068       0.00000000
