10
Lattice="16.290000149 0.0 0.0 0.0 16.290000149 0.0 0.0 0.0 29.1751946751" Properties=species:S:1:pos:R:3:initial_magmoms:R:1 pbc="T T T"
Si       1.18280062      -0.63514711       0.73296842       0.00000000
H        0.60373999       1.35091342      -1.24893173       0.00000000
H       -0.75491119       0.49769208      -1.92302461       0.00000000
H        1.07114896      -2.19939437       0.11425006       0.00000000
H       -0.52978338      -0.06305859       2.39382472       0.00000000
Si      -1.90088012       0.27056061       1.82257441       0.00000000
Si      -1.65139877       2.27100521       0.56935392       0.00000000
Si      -1.68018320      -0.47530962      -2.58194638       0.00000000
Si       2.52063317      -1.80691940      -0.91989389       0.00000000
Si       2.58453884       0.96010003       1.97063852       0.00000000
