10
Lattice="16.290000149 0.0 0.0 0.0 16.290000149 0.0 0.0 0.0 29.1751946751" Properties=species:S:1:pos:R:3:initial_magmoms:R:1 pbc="T T T"
Si      -1.61082037       0.16161309       1.68157070       0.00000000
Si       0.83680102       1.93957213      -1.00473535       0.00000000
Si       1.77359006      -1.16572870       1.01550100       0.00000000
Si      -1.55224153      -0.78185485      -1.60151396       0.00000000
H       -0.20075796       3.06094804      -0.98370004       0.00000000
Si      -2.04884219       2.44606896       1.37706919       0.00000000
Si       0.62929900      -2.78365152       2.23280682       0.00000000
Si       1.12783816       1.22660443      -3.21846160       0.00000000
Si      -2.47265912      -2.61874784      -0.42003528       0.00000000
Si      -0.37709721      -0.62944561      -3.65363880       0.00000000
