10
Lattice="16.290000149 0.0 0.0 0.0 16.290000149 0.0 0.0 0.0 29.1751946751" Properties=species:S:1:pos:R:3:initial_magmoms:R:1 pbc="T T T"
H       -0.59958604       1.31136130      -0.44769336       0.00000000
Si       2.29382750       0.02557530      -0.38123227       0.00000000
Si      -0.79961095      -1.64693811      -1.43413587       0.00000000
Si      -0.76041721      -0.60819693       2.14857804       0.00000000
H        1.37542987       1.66702088      -1.84667312       0.00000000
Si       2.34173639      -2.02724165       0.91598441       0.00000000
Si      -2.23197274      -0.24921745      -2.58821905       0.00000000
Si      -2.14673694       2.72549621       0.16586098       0.00000000
Si       1.29437083      -1.36855549       2.99223714       0.00000000
Si       0.46530756       2.53503353      -2.68543079       0.00000000
