10
Lattice="16.290000149 0.0 0.0 0.0 16.290000149 0.0 0.0 0.0 29.1751946751" Properties=species:S:1:pos:R:3:initial_magmoms:R:1 pbc="T T T"
Si       1.35866583       1.35073423       1.35661738       0.00000000
Si       1.38547592      -1.36275625      -1.32064436       0.00000000
Si      -1.33968961      -1.35795070       1.37461847       0.00000000
Si      -1.34786719       1.38017026      -1.35209522       0.00000000
Si      -2.69250896       2.71208954       0.03080901       0.00000000
Si       0.05227331      -2.73854451      -2.66678784       0.00000000
Si      -2.70456356       0.03298725      -2.70693291       0.00000000
Si       2.70770753       2.70532919      -0.00773143       0.00000000
Si       2.71158455      -0.00358380      -2.70273168       0.00000000
Si      -2.69966027      -2.71639010       0.04078692       0.00000000
