10
Lattice="16.290000149 0.0 0.0 0.0 16.290000149 0.0 0.0 0.0 29.1751946751" Properties=species:S:1:pos:R:3:initial_magmoms:R:1 pbc="T T T"
Si       1.32911740       1.23238738      -1.48568844       0.00000000
Si       1.44930502      -1.36489024       1.25969738       0.00000000
Si      -1.49903839       1.33418359       1.26497809       0.00000000
Si      -1.43894458      -1.40797729      -1.31714334       0.00000000
Si       0.11150505      -2.71515206       2.63381987       0.00000000
Si       2.51714711      -2.81979903      -0.22491158       0.00000000
Si      -0.06563241       2.60508053      -2.77091411       0.00000000
Si      -2.85328312      -0.15097572       2.51469755       0.00000000
Si       2.52205040      -0.21258450      -2.89610487       0.00000000
Si      -2.85694186       2.57447162      -0.15880058       0.00000000
