10
Lattice="16.290000149 0.0 0.0 0.0 16.290000149 0.0 0.0 0.0 29.1751946751" Properties=species:S:1:pos:R:3:initial_magmoms:R:1 pbc="T T T"
Si      -1.37117818       1.34759026      -1.33555289       0.00000000
Si      -1.37246509      -1.34402275       1.33870381       0.00000000
Si       1.35610993      -1.35457867      -1.36128541       0.00000000
Si       1.35643573       1.36677988       1.35250367       0.00000000
Si       0.01181025       2.68625360      -2.66821743       0.00000000
Si      -0.01026270      -2.72836325       2.65147087       0.00000000
Si      -2.72772794       0.02643867       2.68102534       0.00000000
Si       2.71899650      -2.69452892       0.00145876       0.00000000
Si       2.71104698       0.01477503      -2.70675786       0.00000000
Si      -2.72222192      -2.69703758      -0.02331098       0.00000000
