10
Lattice="16.290000149 0.0 0.0 0.0 16.290000149 0.0 0.0 0.0 29.1751946751" Properties=species:S:1:pos:R:3:initial_magmoms:R:1 pbc="T T T"
Si       1.36241416       1.35751087      -1.34083360       0.00000000
Si      -1.35153244       1.39453892       1.32744218       0.00000000
Si       1.38912976      -1.34195392       1.34340101       0.00000000
Si      -1.35643573      -1.36677988      -1.35250367       0.00000000
Si      -2.71233389       0.04129515       2.64942860       0.00000000
Si       0.04660569      -2.77177611       2.61287208       0.00000000
Si       0.00022806       2.71108282      -2.68688955       0.00000000
Si       2.71337645      -0.00447975      -2.69523366       0.00000000
Si       2.69524568       2.71544040       0.03501023       0.00000000
Si      -2.72761391      -0.01918962      -2.68805656       0.00000000
