10
Lattice="16.290000149 0.0 0.0 0.0 16.290000149 0.0 0.0 0.0 29.1751946751" Properties=species:S:1:pos:R:3:initial_magmoms:R:1 pbc="T T T"
Si       1.47030039       1.17978697      -1.40557335       0.00000000
Si      -1.39186648      -1.32453991      -1.36857921       0.00000000
Si      -1.32620149       1.44394561       1.31462552       0.00000000
Si       1.39150810      -1.35627283       1.35687704       0.00000000
Si       0.16630461      -2.59273271      -2.55192510       0.00000000
Si       0.07003071       2.36806103      -2.85222538       0.00000000
H       -0.77952538       3.14325327      -1.85510475       0.00000000
Si      -2.66608658       0.02640609       2.67346896       0.00000000
Si       2.68899195       2.67338450      -0.01314926       0.00000000
Si      -2.60701904      -2.75488338       0.08264749       0.00000000
