10
Lattice="16.290000149 0.0 0.0 0.0 16.290000149 0.0 0.0 0.0 29.1751946751" Properties=species:S:1:pos:R:3:initial_magmoms:R:1 pbc="T T T"
Si       2.25010514      -0.47685717       0.27885651       0.00000000
Si      -1.58418622      -1.66886653      -0.45355758       0.00000000
Si      -0.72936847       0.65805085       2.17338366       0.00000000
Si      -0.08110791       1.43448112      -1.93851663       0.00000000
H        0.26389800      -1.05398744      -2.81432680       0.00000000
Si      -2.83266813      -0.56811376      -2.06750017       0.00000000
Si      -1.31385367       3.25953129      -1.20633595       0.00000000
Si       1.30145698      -2.17536336      -2.83536212       0.00000000
H       -0.00259011       3.82042858      -0.30067956       0.00000000
Si       3.17771476      -1.28918572      -1.71623083       0.00000000
