10
Lattice="16.290000149 0.0 0.0 0.0 16.290000149 0.0 0.0 0.0 29.1751946751" Properties=species:S:1:pos:R:3:initial_magmoms:R:1 pbc="T T T"
H       -0.64237987      -0.22182093       0.37189621       0.00000000
Si       1.93104920       0.26358849       1.44373451       0.00000000
Si       0.69804280      -0.88817968      -2.20649080       0.00000000
H       -1.87005944      -1.33423246       1.23819526       0.00000000
Si      -0.73803475       0.95858506      -2.33465743       0.00000000
Si       2.51423120      -0.02955006      -0.91204576       0.00000000
Si       0.16104294       1.86665483       2.02825953       0.00000000
Si      -1.01594215      -2.40078764      -1.56323611       0.00000000
Si      -2.61363278      -1.56022363      -0.06120956       0.00000000
H        1.56387259       2.62184294      -0.83096789       0.00000000
