10
Lattice="16.290000149 0.0 0.0 0.0 16.290000149 0.0 0.0 0.0 29.1751946751" Properties=species:S:1:pos:R:3:initial_magmoms:R:1 pbc="T T T"
Si       1.28070678      -1.36925108       1.38494941       0.00000000
Si      -1.34249882      -1.21807026      -1.48134425       0.00000000
Si       1.33961142       1.40578303      -1.34708847       0.00000000
Si      -1.42923639       1.30923220       1.35241031       0.00000000
Si      -1.62241560       0.61632075      -3.03708233       0.00000000
Si      -0.28926153       2.59710332      -2.55496224       0.00000000
Si       2.60824405      -2.68201332      -0.03702040       0.00000000
Si      -2.82650725      -2.51653950      -0.10838877       0.00000000
Si      -0.06873240       2.70810338       2.66681410       0.00000000
Si       2.58025783      -0.03873599       2.80673834       0.00000000
