10
Lattice="16.290000149 0.0 0.0 0.0 16.290000149 0.0 0.0 0.0 29.1751946751" Properties=species:S:1:pos:R:3:initial_magmoms:R:1 pbc="T T T"
Si      -1.37600002      -1.34788348      -1.31833952       0.00000000
Si      -1.44217000       1.32279688       1.27516023       0.00000000
Si       1.36477621       1.36637263      -1.33047640       0.00000000
Si       1.35394336      -1.36293544       1.35349563       0.00000000
Si      -0.03381804       2.74613565       2.42445868       0.00000000
Si       0.01158219      -2.71021619      -2.62220815       0.00000000
Si      -2.70772382       0.03119535      -2.67139753       0.00000000
Si       2.74058076       0.01319490      -2.65120829       0.00000000
Si       0.00257382       2.75071314      -2.64324346       0.00000000
Si      -2.71731863      -2.68848533       0.06797820       0.00000000
