10
Lattice="16.290000149 0.0 0.0 0.0 16.290000149 0.0 0.0 0.0 29.1751946751" Properties=species:S:1:pos:R:3:initial_magmoms:R:1 pbc="T T T"
Si      -1.03698883       1.48729330       1.46529498       0.00000000
Si      -1.35436690      -1.49685553      -1.23387733       0.00000000
Si       0.92041759       1.83689300      -1.18147868       0.00000000
Si       1.49734423      -1.29103138       1.31863127       0.00000000
H       -1.90905770       2.32147163       0.54852284       0.00000000
H        2.71518464      -0.98158654      -1.32820074       0.00000000
Si       2.30814641      -2.27067941      -0.63018420       0.00000000
Si       0.86183875       2.78036094       2.10160597       0.00000000
Si       0.41563935      -3.09992187      -1.81840236       0.00000000
Si       2.47265912       2.61874784       0.42003528       0.00000000
