10
Lattice="16.290000149 0.0 0.0 0.0 16.290000149 0.0 0.0 0.0 29.1751946751" Properties=species:S:1:pos:R:3:initial_magmoms:R:1 pbc="T T T"
Si       1.59542632      -1.13267629       1.26276078       0.00000000
Si      -1.22471479      -1.16331778      -1.62170320       0.00000000
Si       1.32080950       1.55033560      -1.30649439       0.00000000
Si      -1.58276899      -0.22196754       1.83345676       0.00000000
H        0.91162099      -2.01323225       2.26700015       0.00000000
H       -0.44703018      -2.86645359       1.59290728       0.00000000
Si      -1.70090408       2.09416097       2.03593261       0.00000000
Si      -2.68073129      -2.50282820      -0.43138443       0.00000000
Si       2.84838798      -2.49934214      -0.14290010       0.00000000
Si       0.13116708      -2.55922418      -2.87241462       0.00000000
