10
Lattice="16.290000149 0.0 0.0 0.0 16.290000149 0.0 0.0 0.0 29.1751946751" Properties=species:S:1:pos:R:3:initial_magmoms:R:1 pbc="T T T"
Si      -1.14429106      -1.61792281       1.21730582       0.00000000
Si       1.44942557      -1.21534804      -1.35431254       0.00000000
Si      -1.77359006       1.16572870      -1.01550100       0.00000000
Si       1.45733762       1.38026800       1.35553789       0.00000000
H       -1.99384715      -0.84273058       2.21442645       0.00000000
Si      -3.38441043       1.32734179       0.66606969       0.00000000
Si       2.89173567      -2.38923803       0.10260916       0.00000000
Si       2.63601524       0.33187617      -2.65050809       0.00000000
Si      -0.93678904       3.10530083      -2.02023636       0.00000000
Si       0.25597862      -2.80619688       2.66395785       0.00000000
