10
Lattice="16.290000149 0.0 0.0 0.0 16.290000149 0.0 0.0 0.0 29.1751946751" Properties=species:S:1:pos:R:3:initial_magmoms:R:1 pbc="T T T"
Si      -1.37674936      -1.36824598      -1.30080523       0.00000000
Si      -1.38398212       1.31075857       1.36306510       0.00000000
Si       1.33255459      -1.36550926       1.36802488       0.00000000
Si       1.32765130       1.38386809      -1.37969496       0.00000000
Si      -2.69379587       0.02313180      -2.63904223       0.00000000
Si      -0.01374876       2.67595832       2.68732718       0.00000000
Si      -0.04895145      -2.72855873      -2.66375362       0.00000000
Si       2.69252525      -0.00706986       2.70185643       0.00000000
Si       2.75437839       0.02274084      -2.64560665       0.00000000
Si      -2.73434169       2.67861359       0.01875965       0.00000000
