10
Lattice="16.290000149 0.0 0.0 0.0 16.290000149 0.0 0.0 0.0 29.1751946751" Properties=species:S:1:pos:R:3:initial_magmoms:R:1 pbc="T T T"
Si       1.35531172      -1.35754508      -1.34267163       0.00000000
Si      -1.34402275      -1.35614088       1.36198561       0.00000000
Si       1.37257912       1.34915410       1.34272998       0.00000000
Si      -1.33024141       1.36524862      -1.37482270       0.00000000
Si       2.70541064       0.01326006      -2.67764102       0.00000000
Si       0.00609246       2.70826139       2.67679494       0.00000000
Si       0.04649166      -2.70313004       2.69304552       0.00000000
Si      -2.68723100       2.72220563      -0.02421541       0.00000000
Si      -2.69646743      -2.71386515       0.00405535       0.00000000
Si       0.00293220      -2.72867277      -2.68257162       0.00000000
