10
Lattice="16.290000149 0.0 0.0 0.0 16.290000149 0.0 0.0 0.0 29.1751946751" Properties=species:S:1:pos:R:3:initial_magmoms:R:1 pbc="T T T"
Si      -1.37621179      -1.33494922      -1.34331349       0.00000000
Si      -1.38758221       1.36233271       1.30386863       0.00000000
Si       1.35876520       1.35821134      -1.35326223       0.00000000
Si       1.35127180      -1.36075258       1.36076025       0.00000000
Si      -0.01158219       2.71021619       2.62220815       0.00000000
Si      -0.00656487      -2.67781538      -2.68350523       0.00000000
Si       2.71538012      -2.69404022      -0.00061268       0.00000000
Si       2.73610101      -0.00444717       2.67749514       0.00000000
Si      -2.72433962      -2.69474069       0.01762182       0.00000000
Si      -2.72890082       0.02173086       2.69018635       0.00000000
