10
Lattice="16.290000149 0.0 0.0 0.0 16.290000149 0.0 0.0 0.0 29.1751946751" Properties=species:S:1:pos:R:3:initial_magmoms:R:1 pbc="T T T"
Si       1.37270944       1.30890151       1.36178139       0.00000000
Si       1.39373983      -1.35172792      -1.29820864       0.00000000
Si      -1.30904812      -1.30111489       1.43673246       0.00000000
Si      -1.35394336       1.36293544      -1.35349563       0.00000000
Si      -0.07933230       2.77244400       2.43633298       0.00000000
Si       0.00891063      -2.70803333      -2.61494352       0.00000000
Si      -2.70068654      -2.64292220       0.09429423       0.00000000
Si       2.74561437       0.04028517      -2.62629267       0.00000000
Si      -2.72994339       0.01505196      -2.67183515       0.00000000
Si      -2.72196128       0.08534331       2.68257162       0.00000000
