10
Lattice="16.290000149 0.0 0.0 0.0 16.290000149 0.0 0.0 0.0 29.1751946751" Properties=species:S:1:pos:R:3:initial_magmoms:R:1 pbc="T T T"
Si      -1.21337695      -1.32082579       1.50389376       0.00000000
Si       1.53818326       0.68176909       1.63287730       0.00000000
Si       0.60795910      -1.07885413      -2.05822246       0.00000000
Si      -1.51119073       1.87444145      -0.30280935       0.00000000
H        1.88318918      -1.80669948       0.75706713       0.00000000
H        3.13136157       0.31297977      -0.94781455       0.00000000
Si      -1.89643295       1.23341365      -2.54255987       0.00000000
Si       0.30543750       2.50681925       2.36505798       0.00000000
Si       3.20103390       1.38075670       0.11877222       0.00000000
Si      -2.56124414       0.22341735       2.65573045       0.00000000
