10
Lattice="16.290000149 0.0 0.0 0.0 16.290000149 0.0 0.0 0.0 29.1751946751" Properties=species:S:1:pos:R:3:initial_magmoms:R:1 pbc="T T T"
Si      -1.40026968       1.18827406      -1.44665203       0.00000000
Si      -1.47030039      -1.17978697       1.40557335       0.00000000
Si       1.46861275      -1.27301464      -1.34272998       0.00000000
Si       1.21869156       1.49359753       1.39242409       0.00000000
H       -2.24982577       1.96346630      -0.44953140       0.00000000
Si       2.63575705       0.41695884      -2.56134869       0.00000000
Si      -0.07879229      -2.53605980       2.76245039       0.00000000
Si       2.59846924       0.15547176       2.76862970       0.00000000
Si      -2.86216687      -2.50432688       0.03699415       0.00000000
Si      -0.25597862       2.80619688      -2.66395785       0.00000000
