10
Lattice="16.290000149 0.0 0.0 0.0 16.290000149 0.0 0.0 0.0 29.1751946751" Properties=species:S:1:pos:R:3:initial_magmoms:R:1 pbc="T T T"
H       -1.44948421      -0.39247497       1.03414395       0.00000000
Si       1.20531340      -1.42184008       1.46339859       0.00000000
Si      -1.43508385      -1.43448112      -1.26223562       0.00000000
Si       1.39088224       1.33182154      -1.42547084       0.00000000
Si      -1.33783255       1.17177229       1.65286230       0.00000000
H       -2.52063317       1.80691940       0.91989389       0.00000000
H       -1.91689319       3.15783282      -0.32903785       0.00000000
Si       2.66158240      -0.02362050       2.63122328       0.00000000
Si       2.65528469      -2.66888846       0.10275504       0.00000000
Si       2.65792367       2.70182684      -0.04227486       0.00000000
