10
Lattice="16.290000149 0.0 0.0 0.0 16.290000149 0.0 0.0 0.0 29.1751946751" Properties=species:S:1:pos:R:3:initial_magmoms:R:1 pbc="T T T"
H       -1.40923162       0.34406109       0.49078512       0.00000000
Si       0.47387610      -2.14262372       0.88637159       0.00000000
Si      -0.40503456       0.25782183      -2.37719486       0.00000000
Si       1.20197395       1.63202995       1.37555208       0.00000000
H        0.06146217       2.73116514      -1.06938759       0.00000000
H        1.52058844      -1.37784079      -2.16660831       0.00000000
H        0.40420377      -3.21040065      -0.18021518       0.00000000
Si      -0.80772337       3.00954495       1.45814705       0.00000000
Si       3.42938712       0.19272699       0.31622994       0.00000000
Si      -2.70023042       2.18030249       0.26992890       0.00000000
