10
Lattice="16.290000149 0.0 0.0 0.0 16.290000149 0.0 0.0 0.0 29.1751946751" Properties=species:S:1:pos:R:3:initial_magmoms:R:1 pbc="T T T"
Si       1.34249882       1.21807026       1.48134425       0.00000000
Si       1.16556173      -1.58914800      -1.29418246       0.00000000
Si      -1.48400843      -1.29846923       1.37295549       0.00000000
Si      -0.27991677       1.83439102      -1.55573808       0.00000000
Si       2.48651621      -0.15593749      -2.62605927       0.00000000
Si       0.64769285       1.02206247      -3.55082542       0.00000000
Si       2.68211024       2.62385329       0.13425579       0.00000000
Si       2.52434159      -2.82420694       0.16438618       0.00000000
Si      -0.08673757       2.52730246       2.83375457       0.00000000
Si      -2.53002191       2.31124819      -1.83459459       0.00000000
