10
Lattice="16.290000149 0.0 0.0 0.0 16.290000149 0.0 0.0 0.0 29.1751946751" Properties=species:S:1:pos:R:3:initial_magmoms:R:1 pbc="T T T"
Si      -1.31788561       1.43440945      -1.27250529       0.00000000
Si       1.31477552       1.38590434       1.35865964       0.00000000
Si      -1.39876546      -1.33545421       1.32995125       0.00000000
Si       1.28070499      -1.34478838      -1.45447098       0.00000000
Si      -2.64110603       0.09758003      -2.60904722       0.00000000
Si       2.64530853      -2.69156414      -0.08347023       0.00000000
Si      -0.02901089      -2.68762196       2.67128082       0.00000000
Si       2.66457960       0.02953377       2.71136754       0.00000000
Si       2.69416224       0.04219110      -2.71031140       0.00000000
Si       2.63973735       2.76812715       0.00037928       0.00000000
