10
Lattice="16.290000149 0.0 0.0 0.0 16.290000149 0.0 0.0 0.0 29.1751946751" Properties=species:S:1:pos:R:3:initial_magmoms:R:1 pbc="T T T"
Si      -1.76029742      -0.27089130       1.48659287       0.00000000
Si       0.11813508      -2.31612851      -0.20247585       0.00000000
Si      -0.97270849       0.88756880      -1.98438004       0.00000000
Si       1.81423361       1.21808476       1.00706937       0.00000000
H       -0.46079523       2.67064778       1.48192484       0.00000000
Si       1.70090408      -2.09416097      -2.03593261       0.00000000
Si      -2.50740569       2.21433230      -0.81512576       0.00000000
Si      -1.07631289       3.53506035       0.40387222       0.00000000
Si       0.35738631      -3.18730143       2.04935320       0.00000000
Si       3.25997112      -0.40941169       1.92212018       0.00000000
