10
Lattice="16.290000149 0.0 0.0 0.0 16.290000149 0.0 0.0 0.0 29.1751946751" Properties=species:S:1:pos:R:3:initial_magmoms:R:1 pbc="T T T"
Si       1.37071555       1.36361962       1.32764641       0.00000000
Si      -1.32781420       1.38171781      -1.35495439       0.00000000
Si       1.37886869      -1.35001747      -1.33651567       0.00000000
Si      -1.35280306      -1.35145588       1.36501983       0.00000000
Si      -2.69650001       0.03126051      -2.68796904       0.00000000
Si       0.00496845       2.71606430       2.67247701       0.00000000
Si      -2.68563458      -2.70938540      -0.01082400       0.00000000
Si       2.70383051       0.03220533      -2.69479603       0.00000000
Si       2.69777063       0.00781920       2.70547415       0.00000000
Si      -2.69263928       2.73331542      -0.01105740       0.00000000
