10
Lattice="16.28999089631971 0.0 0.0 0.0 16.28999089631971 0.0 0.0 0.0 34.26581377546328" Properties=species:S:1:pos:R:3:initial_magmoms:R:1 pbc="T T T"
Si       1.34115570       1.35294966       1.34592765       0.00000000
Si      -1.33225647      -1.35888411       1.36381442       0.00000000
Si       1.35524655      -1.35396941      -1.35278082       0.00000000
Si      -1.35829930       1.35728280      -1.35326054       0.00000000
Si      -2.60420688       0.07749153       2.67235804       0.00000000
Si      -0.01216863       2.64692952       2.73883376       0.00000000
Si       2.54029518       0.05431086       2.83823894       0.00000000
Si       2.71298547       0.00094482      -2.71025606       0.00000000
Si      -0.00164529      -2.71427869      -2.71018752       0.00000000
Si      -0.00175932       2.71533123      -2.71032459       0.00000000
