10
Lattice="16.28999089631971 0.0 0.0 0.0 16.28999089631971 0.0 0.0 0.0 34.26581377546328" Properties=species:S:1:pos:R:3:initial_magmoms:R:1 pbc="T T T"
Si      -1.35524655       1.35396941       1.35278082       0.00000000
Si       1.35773892       1.35491423      -1.35747524       0.00000000
Si      -1.35689184      -1.36030928      -1.35740671       0.00000000
Si       1.35806472      -1.36215413       1.36254658       0.00000000
Si      -2.68750302      -0.00491469       2.71659523       0.00000000
Si      -0.01409085       2.70691907       2.69870847       0.00000000
Si      -2.71354585       2.71125221      -0.00047972       0.00000000
Si       2.71443528       2.71110560      -0.00089091       0.00000000
Si       0.00061902       2.71222961      -2.71471061       0.00000000
Si      -2.71409808      -0.00363430      -2.71440222       0.00000000
