10
Lattice="16.28999089631971 0.0 0.0 0.0 16.28999089631971 0.0 0.0 0.0 34.26581377546328" Properties=species:S:1:pos:R:3:initial_magmoms:R:1 pbc="T T T"
Si       1.35741312      -1.35622074      -1.36278644       0.00000000
Si      -1.35806472       1.36215413      -1.36254658       0.00000000
Si      -1.34065071      -1.35918552       1.38320888       0.00000000
Si       1.35804843       1.36535674       1.39708654       0.00000000
Si       2.71487511      -2.71417143      -0.00191889       0.00000000
Si      -2.71331127       2.71612354      -0.00976576       0.00000000
Si      -2.71878471      -2.71092972      -0.00051399       0.00000000
Si       2.71072116       2.72016346      -0.00095944       0.00000000
Si       0.00000000      -2.71304742      -2.71957636       0.00000000
Si      -2.71495656       0.00184485      -2.71995329       0.00000000
