10
Lattice="16.28999089631971 0.0 0.0 0.0 16.28999089631971 0.0 0.0 0.0 34.26581377546328" Properties=species:S:1:pos:R:3:initial_magmoms:R:1 pbc="T T T"
Si      -1.22290659      -0.24496902      -2.01171279       0.00000000
Si       1.84384881      -1.52114065      -0.13970180       0.00000000
Si       0.77745654       2.26997892       0.04632741       0.00000000
Si      -0.76093848      -0.13014081       2.27350375       0.00000000
Si       2.91432987       1.75228272       0.86603466       0.00000000
Si       3.56278590      -0.01839141      -0.61380387       0.00000000
Si      -2.17598562      -2.43080099      -1.87910401       0.00000000
Si      -0.12887019      -2.29246631       2.98791210       0.00000000
Si       2.03383908      -2.50936766       2.01397433       0.00000000
Si       0.27666936       1.59180993       3.47500091       0.00000000
