10
Lattice="16.28999089631971 0.0 0.0 0.0 16.28999089631971 0.0 0.0 0.0 34.26581377546328" Properties=species:S:1:pos:R:3:initial_magmoms:R:1 pbc="T T T"
Si       2.27432835      -0.43372844      -0.04598475       0.00000000
Si      -1.32250365      -1.51898453       1.23641405       0.00000000
Si       0.15081282       1.81185525       1.53226525       0.00000000
Si      -0.98228700       0.23908019      -2.16388735       0.00000000
Si       1.94224041      -2.62266461      -0.82652616       0.00000000
Si       1.25133264       0.38390806       3.16314757       0.00000000
Si       2.87267634       1.12834803      -1.69053913       0.00000000
Si      -2.14804827       2.17259730       1.81245697       0.00000000
Si       0.14776659      -1.76440967       3.12405025       0.00000000
Si      -3.10212099       0.01772026       1.82427868       0.00000000
