10
Lattice="16.28999089631971 0.0 0.0 0.0 16.28999089631971 0.0 0.0 0.0 34.26581377546328" Properties=species:S:1:pos:R:3:initial_magmoms:R:1 pbc="T T T"
Si      -1.35669636      -1.35619137      -1.35658433       0.00000000
Si       1.35435060      -1.35309627       1.36247805       0.00000000
Si      -1.35391077       1.35927018       1.35918853       0.00000000
Si       1.35796698       1.35894438      -1.35596754       0.00000000
Si      -2.71443528      -2.71110560       0.00089091       0.00000000
Si      -2.71381626       0.00112401      -2.71381970       0.00000000
Si       0.00148239      -2.71390911      -2.71416236       0.00000000
Si      -2.72852613      -0.00418653       2.69959938       0.00000000
Si       0.00066789       2.71643895      -2.71337425       0.00000000
Si       2.71642266       0.00070047      -2.71402530       0.00000000
