10
Lattice="16.28999089631971 0.0 0.0 0.0 16.28999089631971 0.0 0.0 0.0 34.26581377546328" Properties=species:S:1:pos:R:3:initial_magmoms:R:1 pbc="T T T"
Si      -1.63123173      -1.14310188      -1.31227860       0.00000000
Si       1.09009422       1.67505183      -1.34993675       0.00000000
Si      -1.33343424       0.92299140       1.96161614       0.00000000
Si       1.87971939      -1.89297945       0.09837721       0.00000000
Si       2.44946214       0.28766511      -2.68812033       0.00000000
Si      -0.27790740      -2.43708174      -2.70518471       0.00000000
Si       2.80316691       2.48409468       0.13089548       0.00000000
Si       1.59376473       2.53542447       2.38336001       0.00000000
Si      -3.36153924      -2.01559428       0.03087352       0.00000000
Si      -2.96451121       0.27948753      -2.68311752       0.00000000
