10
Lattice="16.28999089631971 0.0 0.0 0.0 16.28999089631971 0.0 0.0 0.0 34.26581377546328" Properties=species:S:1:pos:R:3:initial_magmoms:R:1 pbc="T T T"
Si       1.83575268       1.40561523      -0.44161805       0.00000000
Si      -1.55869236       0.12935889      -1.81208004       0.00000000
Si       0.84458763      -2.23723602       0.19822784       0.00000000
Si      -0.88594794       0.75694743       2.14308799       0.00000000
Si      -3.15807714       1.38227166      -0.56682541       0.00000000
Si       1.60813251       1.28647017      -2.84063755       0.00000000
Si       0.68191569      -0.37976877       3.60308660       0.00000000
Si       0.90560997      -2.48663592       2.56805285       0.00000000
Si      -3.27481128       0.64376451       1.73066442       0.00000000
Si      -2.61535950      -1.89719856      -2.34803194       0.00000000
