10
Lattice="16.28999089631971 0.0 0.0 0.0 16.28999089631971 0.0 0.0 0.0 34.26581377546328" Properties=species:S:1:pos:R:3:initial_magmoms:R:1 pbc="T T T"
Si      -0.62402103      -2.20307589       0.53180573       0.00000000
Si       0.11673414       0.73850715      -2.29748983       0.00000000
Si       2.38886334       0.11318292       0.41242357       0.00000000
Si      -1.94227299       1.15054641       0.96605663       0.00000000
Si       2.43126621       2.37739518       1.13676901       0.00000000
Si       3.27481128      -0.64376451      -1.73066442       0.00000000
Si      -1.99759383       0.35743518      -3.26865207       0.00000000
Si      -3.83083785      -0.21535380       0.33474292       0.00000000
Si      -3.02824258      -2.38539357       0.56100022       0.00000000
Si      -0.35886870      -2.60367957       2.90910068       0.00000000
