10
Lattice="16.28999089631971 0.0 0.0 0.0 16.28999089631971 0.0 0.0 0.0 34.26581377546328" Properties=species:S:1:pos:R:3:initial_magmoms:R:1 pbc="T T T"
Si       0.04240287       2.26421226       0.72434544       0.00000000
Si       1.56786363      -1.13671620       1.45999861       0.00000000
Si      -2.38886334      -0.11318292      -0.41242357       0.00000000
Si       0.88594794      -0.75694743      -2.14308799       0.00000000
Si      -2.27212920       0.62532423      -2.70991340       0.00000000
Si       1.79155791      -3.24358335       0.42496486       0.00000000
Si       2.29040658       2.91397149       0.63768715       0.00000000
Si      -3.01288437      -2.31625881       0.11938216       0.00000000
Si       2.72170062       0.64866780      -2.58470604       0.00000000
Si      -0.46832121       3.77836776      -1.08818006       0.00000000
