10
Lattice="16.28999089631971 0.0 0.0 0.0 16.28999089631971 0.0 0.0 0.0 34.26581377546328" Properties=species:S:1:pos:R:3:initial_magmoms:R:1 pbc="T T T"
Si      -1.55471760      -0.81047637      -1.51609178       0.00000000
Si       0.16252533       2.26266471      -0.72026781       0.00000000
Si      -1.53197676       0.53180334       1.92944052       0.00000000
Si       1.98838998      -1.53287271      -0.55462677       0.00000000
Si      -2.18763297      -2.75638203      -0.25178534       0.00000000
Si       1.70021988      -2.58683571       1.90665374       0.00000000
Si      -3.51021807       0.92426202       0.43150963       0.00000000
Si       0.91867455       2.18180115      -2.99000232       0.00000000
Si       1.86204474       3.42005292       0.31822679       0.00000000
Si      -0.66863934      -1.39320225      -3.62093910       0.00000000
