10
Lattice="16.28999089631971 0.0 0.0 0.0 16.28999089631971 0.0 0.0 0.0 34.26581377546328" Properties=species:S:1:pos:R:3:initial_magmoms:R:1 pbc="T T T"
Si       1.31691618      -1.25610561       1.53113105       0.00000000
Si       2.07057303       0.74375253      -1.07830156       0.00000000
Si      -1.40310657       1.44422253       1.49429871       0.00000000
Si      -0.73324548      -2.04968925      -1.29687067       0.00000000
Si       1.41695307       0.16379595      -3.33222688       0.00000000
Si      -2.62824489      -2.59872741       0.10813612       0.00000000
Si       2.70756090      -2.60356554       0.21110837       0.00000000
Si      -1.86911460       2.63818179      -2.09022750       0.00000000
Si      -0.03438819      -2.61837315       2.88799636       0.00000000
Si       2.67599088       0.09767484       2.88693412       0.00000000
