10
Lattice="16.28999089631971 0.0 0.0 0.0 16.28999089631971 0.0 0.0 0.0 34.26581377546328" Properties=species:S:1:pos:R:3:initial_magmoms:R:1 pbc="T T T"
Si      -2.26743768      -0.69947631       0.09381985       0.00000000
Si       0.04935870       1.84899645      -1.52277362       0.00000000
Si       0.47794860       1.37513664       2.02278065       0.00000000
Si       1.69528401      -1.63167156      -0.83084365       0.00000000
Si       2.29755789      -0.24215085       2.27224246       0.00000000
Si      -2.16725418       2.32187886      -0.99340076       0.00000000
Si       3.39480342      -0.47428335       0.20765095       0.00000000
Si      -1.97745939      -2.97007425       0.32093379       0.00000000
Si      -1.41705081       0.82609848       3.42778743       0.00000000
Si       0.00078192      -3.36253293       1.81886468       0.00000000
