10
Lattice="16.28999089631971 0.0 0.0 0.0 16.28999089631971 0.0 0.0 0.0 34.26581377546328" Properties=species:S:1:pos:R:3:initial_magmoms:R:1 pbc="T T T"
Si      -1.34713413      -1.34741106       1.39667878       0.00000000
Si       1.36721970       1.36796904       1.39236128       0.00000000
Si      -1.62862533       1.14629472      -1.42320738       0.00000000
Si       1.40310657      -1.44422253      -1.49429871       0.00000000
Si      -0.46600803       1.19395926      -3.58452621       0.00000000
Si      -2.68345170      -2.70291825       0.02200894       0.00000000
Si       2.72002275      -2.70032814       0.03683234       0.00000000
Si      -2.69659773       2.72686455       0.02241671       0.00000000
Si       2.72764647       2.70820242       0.01815746       0.00000000
Si      -2.70436806       0.00962739       2.75247499       0.00000000
