10
Lattice="16.28999089631971 0.0 0.0 0.0 16.28999089631971 0.0 0.0 0.0 34.26581377546328" Properties=species:S:1:pos:R:3:initial_magmoms:R:1 pbc="T T T"
Si       0.49155075      -0.65762730       2.17015800       0.00000000
Si       1.04216904      -0.89593371      -1.94636784       0.00000000
Si      -0.98790705       2.17957335       0.00579093       0.00000000
Si      -1.10110626      -2.76464106       0.54225681       0.00000000
Si      -1.77292215      -1.42703658       2.33860883       0.00000000
Si       2.67600717      -2.47950090      -0.80576106       0.00000000
Si       0.51932520       1.14078285       3.65736368       0.00000000
Si       2.46715308      -2.05850214       2.23560574       0.00000000
Si      -2.44877796       2.30973371      -2.02517926       0.00000000
Si      -2.54743020       2.41695449       1.78535269       0.00000000
