10
Lattice="16.28999089631971 0.0 0.0 0.0 16.28999089631971 0.0 0.0 0.0 34.26581377546328" Properties=species:S:1:pos:R:3:initial_magmoms:R:1 pbc="T T T"
Si       1.35671265      -1.35724208      -1.35689272       0.00000000
Si      -1.35632169      -1.35705311       1.35840041       0.00000000
Si      -1.35718506       1.35729909      -1.35764657       0.00000000
Si       1.35884664       1.35661491       1.35709831       0.00000000
Si       2.71217097       0.00050499       2.71357984       0.00000000
Si       2.71352304      -0.00073305      -2.71429942       0.00000000
Si       0.00092853      -2.71388035      -2.71443649       0.00000000
Si       0.00122175       2.71467963      -2.71402530       0.00000000
Si      -2.71476108      -2.71491251       0.00010280       0.00000000
Si       2.71494027      -2.71533440       0.00027413       0.00000000
