10
Lattice="16.28999089631971 0.0 0.0 0.0 16.28999089631971 0.0 0.0 0.0 34.26581377546328" Properties=species:S:1:pos:R:3:initial_magmoms:R:1 pbc="T T T"
Si      -1.00468575       0.91148089       1.92628806       0.00000000
Si      -1.06860771       1.55547020      -1.49292807       0.00000000
Si       2.35437741       0.13044380       0.59571151       0.00000000
Si      -1.15885431      -2.17792806      -0.60917798       0.00000000
Si      -0.40625631      -0.53045520       3.69923653       0.00000000
Si       0.60056343       3.30330575      -1.70643848       0.00000000
Si       2.63849130      -1.50340803       2.23056866       0.00000000
Si       0.55921941      -3.77977263      -0.15871934       0.00000000
Si       1.94898447      -2.58643239      -2.04919961       0.00000000
Si       3.57063768      -0.77729757      -1.16116628       0.00000000
