10
Lattice="16.28999089631971 0.0 0.0 0.0 16.28999089631971 0.0 0.0 0.0 34.26581377546328" Properties=species:S:1:pos:R:3:initial_magmoms:R:1 pbc="T T T"
Si       0.81819783      -0.94076772      -1.95137065       0.00000000
Si       0.86283243       2.12117303      -0.46957897       0.00000000
Si      -2.31769233       0.35441176       0.12918219       0.00000000
Si       0.72936846      -1.62546900       1.57376117       0.00000000
Si       3.13918074      -0.98128095      -1.40068445       0.00000000
Si      -1.40576184      -2.45151861       2.25609671       0.00000000
Si      -2.90072772      -0.61555072       2.17399577       0.00000000
Si       0.21976839       0.50116837      -3.72431911       0.00000000
Si       1.50104205      -3.51176955       0.30212185       0.00000000
Si       0.72658287       2.61958187      -2.78457865       0.00000000
