10
Lattice="16.28999089631971 0.0 0.0 0.0 16.28999089631971 0.0 0.0 0.0 34.26581377546328" Properties=species:S:1:pos:R:3:initial_magmoms:R:1 pbc="T T T"
Si      -1.65379079      -1.52380669       0.49812241       0.00000000
Si       1.03587458       0.16608926       2.10344242       0.00000000
Si      -1.31065823       1.83602928      -0.73764059       0.00000000
Si       1.26171914      -0.98853358      -1.77709463       0.00000000
Si       2.81549192      -1.37061553       1.51557779       0.00000000
Si      -0.27626863      -3.30357064       1.12950465       0.00000000
Si       3.15570857       0.38744918      -1.88472361       0.00000000
Si       1.98994730       2.32096629       2.09162071       0.00000000
Si       1.61806289       3.45919746      -0.06520788       0.00000000
Si      -0.06926182      -1.24451464      -3.64872869       0.00000000
