10
Lattice="16.28999089631971 0.0 0.0 0.0 16.28999089631971 0.0 0.0 0.0 34.26581377546328" Properties=species:S:1:pos:R:3:initial_magmoms:R:1 pbc="T T T"
Si      -1.00641249      -1.86070896      -0.96475453       0.00000000
Si      -1.56867813       1.72245573       0.36383461       0.00000000
Si       1.84919193       1.06453521      -1.09445070       0.00000000
Si       1.06974801      -0.70128450       2.04217511       0.00000000
Si       1.55988153       2.98396962       0.26960357       0.00000000
Si       3.28158792      -0.75904884      -0.74411683       0.00000000
Si      -1.34105796       1.84160079       2.76285411       0.00000000
Si      -0.59111523       3.54563253      -0.71029645       0.00000000
Si       0.52680231      -3.61406682      -0.56634569       0.00000000
Si      -1.04759361      -1.45266075      -3.27632762       0.00000000
