10
Lattice="16.28999089631971 0.0 0.0 0.0 16.28999089631971 0.0 0.0 0.0 34.26581377546328" Properties=species:S:1:pos:R:3:initial_magmoms:R:1 pbc="T T T"
Si      -1.30583898       1.32036966       1.44762864       0.00000000
Si      -1.36138788      -1.34904006      -1.37053052       0.00000000
Si       1.34987085       1.36619343      -1.36926268       0.00000000
Si       1.21699332      -1.30044699       1.61864942       0.00000000
Si       0.48883032       2.34518985       2.68698955       0.00000000
Si      -2.36905470      -0.50472936       2.80739969       0.00000000
Si       2.70733284      -2.69213427       0.03330639       0.00000000
Si      -0.63785124      -2.27988324       3.00597019       0.00000000
Si       2.18861037       0.49904415       3.10146907       0.00000000
Si      -2.72275947      -2.70115893      -0.01161612       0.00000000
