10
Lattice="16.28999089631971 0.0 0.0 0.0 16.28999089631971 0.0 0.0 0.0 34.26581377546328" Properties=species:S:1:pos:R:3:initial_magmoms:R:1 pbc="T T T"
Si       1.67663196       0.89456535      -1.57266467       0.00000000
Si      -0.97161705      -1.79949114      -1.48281965       0.00000000
Si      -1.69978005       1.84614570      -0.41447952       0.00000000
Si       0.15670980       0.45867753       2.67496225       0.00000000
Si       2.80228725       2.42502714      -0.21457265       0.00000000
Si      -2.18861037      -0.49904415      -3.10146907       0.00000000
Si       0.52455429       2.22839055      -3.11825933       0.00000000
Si      -3.49444935       0.82132551      -1.65384043       0.00000000
Si      -2.82646161      -2.77892739      -0.09549888       0.00000000
Si      -0.76142718       3.59810262      -1.73635255       0.00000000
