10
Lattice="16.28999089631971 0.0 0.0 0.0 16.28999089631971 0.0 0.0 0.0 34.26581377546328" Properties=species:S:1:pos:R:3:initial_magmoms:R:1 pbc="T T T"
Si      -1.38797316       1.79639604      -0.84578355       0.00000000
Si       0.19352520       0.62626905       2.35481657       0.00000000
Si       2.07936963       0.60417981      -1.15020121       0.00000000
Si      -0.99789282      -2.13793218      -0.80987296       0.00000000
Si      -0.78403770      -1.19690775       3.42894763       0.00000000
Si       2.63383236      -1.85482827       1.97066232       0.00000000
Si       3.69851418      -0.87957855      -0.10033036       0.00000000
Si      -3.58586883       1.16322003      -0.52423298       0.00000000
Si       2.36853342       2.94689358      -0.52598054       0.00000000
Si      -0.64433466       2.90264994       2.53131988       0.00000000
