10
Lattice="16.28999089631971 0.0 0.0 0.0 16.28999089631971 0.0 0.0 0.0 34.26581377546328" Properties=species:S:1:pos:R:3:initial_magmoms:R:1 pbc="T T T"
Si       0.97756290       1.82317680      -1.07413106       0.00000000
Si       1.56867813      -1.72245573      -0.36383461       0.00000000
Si      -2.16951849      -0.28616643      -0.99788959       0.00000000
Si       0.22762017       0.11914506       2.39901949       0.00000000
Si       3.12855966       1.26151389      -0.09423104       0.00000000
Si      -1.60813251      -1.28647017       2.84063755       0.00000000
Si      -3.16682487      -1.15711128       1.02855751       0.00000000
Si       0.78403770       1.19690775      -3.42894763       0.00000000
Si       3.41787006      -0.65792052      -1.45828532       0.00000000
Si       0.56226564      -3.58316469      -1.32858914       0.00000000
