10
Lattice="16.28999089631971 0.0 0.0 0.0 16.28999089631971 0.0 0.0 0.0 34.26581377546328" Properties=species:S:1:pos:R:3:initial_magmoms:R:1 pbc="T T T"
Si       1.01294478      -1.74521286      -1.19060063       0.00000000
Si      -2.27170566      -0.56962872      -0.13774865       0.00000000
Si       0.28015542       1.95046686      -1.30532264       0.00000000
Si       0.52616700      -0.27797256       2.34988229       0.00000000
Si      -0.17572023      -3.54199986      -0.32764989       0.00000000
Si      -2.79345807      -0.48720132       2.15956985       0.00000000
Si      -2.36216403      -2.75250501      -1.06282334       0.00000000
Si       2.77555536      -0.93714741       2.51661983       0.00000000
Si       3.36517191      -1.65157794      -0.94186495       0.00000000
Si      -0.49151817       3.83676741      -0.03368331       0.00000000
