10
Lattice="16.28999089631971 0.0 0.0 0.0 16.28999089631971 0.0 0.0 0.0 34.26581377546328" Properties=species:S:1:pos:R:3:initial_magmoms:R:1 pbc="T T T"
Si       1.60938684      -1.07290827       1.23898399       0.00000000
Si      -2.24800371      -0.64975923       0.08665829       0.00000000
Si       0.52175241      -0.08242740      -2.29731850       0.00000000
Si       0.12702942       2.32665183       0.51720848       0.00000000
Si       3.31962507       0.20922876       0.19031244       0.00000000
Si      -2.75872779       0.86439627      -1.72586721       0.00000000
Si      -0.81849105       1.75752810      -2.82867877       0.00000000
Si       2.79345807       0.48720132      -2.15956985       0.00000000
Si       0.92424573      -0.61639731       3.42713155       0.00000000
Si      -2.03742288       2.86660017       1.20173703       0.00000000
