10
Lattice="16.28999089631971 0.0 0.0 0.0 16.28999089631971 0.0 0.0 0.0 34.26581377546328" Properties=species:S:1:pos:R:3:initial_magmoms:R:1 pbc="T T T"
Si      -0.65361996      -0.57995658      -2.25392532       0.00000000
Si      -2.07057303      -0.74375253       1.07830156       0.00000000
Si       0.51725637       1.45130868      -1.92702927       0.00000000
Si       1.76251284      -1.73762172       0.06343394       0.00000000
Si       0.70144740       2.10891969       1.15681144       0.00000000
Si       1.98172737       0.72161442       2.60101350       0.00000000
Si      -0.75365685      -1.99985814       2.60943261       0.00000000
Si       0.63698787      -3.34731807       1.28940993       0.00000000
Si       3.40560369      -0.56614266       1.18112304       0.00000000
Si       0.81645480      -2.44682316      -2.73710783       0.00000000
