10
Lattice="16.28999089631971 0.0 0.0 0.0 16.28999089631971 0.0 0.0 0.0 34.26581377546328" Properties=species:S:1:pos:R:3:initial_magmoms:R:1 pbc="T T T"
Si      -0.22371057      -1.99158282      -1.21325035       0.00000000
Si       1.81472229       0.76075929      -1.34390597       0.00000000
Si       0.51992793      -0.88532892       2.16385308       0.00000000
Si      -1.97560233       1.40087484      -0.06544774       0.00000000
Si       0.20885409      -0.42099876      -3.04136680       0.00000000
Si      -2.42160624      -2.62475883      -0.89169977       0.00000000
Si       3.53279601      -0.84108528      -0.89344733       0.00000000
Si      -1.21806846      -0.19235232       3.63313773       0.00000000
Si       2.51893899       0.05157414       2.92119652       0.00000000
Si      -2.46715308       2.05850214      -2.23560574       0.00000000
