10
Lattice="16.28999089631971 0.0 0.0 0.0 16.28999089631971 0.0 0.0 0.0 34.26581377546328" Properties=species:S:1:pos:R:3:initial_magmoms:R:1 pbc="T T T"
Si       2.17344438       0.76631418      -0.18082080       0.00000000
Si      -0.28015542      -1.95046686       1.30532264       0.00000000
Si      -0.77167359       1.88630055       1.27163933       0.00000000
Si      -0.73122552       0.21434382      -2.29680452       0.00000000
Si       1.63813869       2.53048860      -1.70280630       0.00000000
Si      -0.68284422       2.57100183      -2.25349250       0.00000000
Si      -2.90680389       1.06025094       1.95397486       0.00000000
Si       3.15369513       0.27346023       1.94760141       0.00000000
Si       0.73278936      -3.69567972       0.11472201       0.00000000
Si      -2.55186108      -2.52009558       1.16757399       0.00000000
