10
Lattice="16.28999089631971 0.0 0.0 0.0 16.28999089631971 0.0 0.0 0.0 34.26581377546328" Properties=species:S:1:pos:R:3:initial_magmoms:R:1 pbc="T T T"
Si      -1.35415512       1.35570267       1.35620740       0.00000000
Si       1.35935163       1.35400851      -1.35727307       0.00000000
Si       1.35814617      -1.35971001       1.35593327       0.00000000
Si      -1.34682462      -1.36519974      -1.36559624       0.00000000
Si       0.11161908      -2.60156839      -2.77778373       0.00000000
Si      -2.71109583       2.71099809      -0.00788114       0.00000000
Si      -2.71256193      -0.00167787       2.71258613       0.00000000
Si       0.00223173       2.71355562       2.71289452       0.00000000
Si      -2.70923877      -2.71721924      -0.00219301       0.00000000
Si       0.00133578      -2.71621904       2.71333998       0.00000000
