10
Lattice="16.28999089631971 0.0 0.0 0.0 16.28999089631971 0.0 0.0 0.0 34.26581377546328" Properties=species:S:1:pos:R:3:initial_magmoms:R:1 pbc="T T T"
Si      -0.35031645       0.72944991       2.30437726       0.00000000
Si      -1.65561786      -1.80792773       0.08028485       0.00000000
Si      -0.48729906       2.03206347      -1.31210727       0.00000000
Si       1.93624569      -0.31734549      -2.60002287       0.00000000
Si      -2.60452665       2.42730774      -0.01288395       0.00000000
Si       1.47699801       3.18676383      -0.59389542       0.00000000
Si      -0.09348831      -3.57458705       0.23609159       0.00000000
Si      -2.53491948      -1.96375950      -2.09491023       0.00000000
Si      -2.16212283       2.45275272       2.36643269       0.00000000
Si      -1.38466629      -0.76627183       3.74466415       0.00000000
