10
Lattice="16.28999089631971 0.0 0.0 0.0 16.28999089631971 0.0 0.0 0.0 34.26581377546328" Properties=species:S:1:pos:R:3:initial_magmoms:R:1 pbc="T T T"
Si       1.35829930      -1.35728280       1.35326054       0.00000000
Si      -1.35815268      -1.35648459      -1.35655006       0.00000000
Si       1.35653998       1.35804843      -1.35706405       0.00000000
Si      -1.35866812       1.35783666       1.35884587       0.00000000
Si       2.69945500      -0.00433314       2.69918819       0.00000000
Si       2.71354585      -2.71125221       0.00047972       0.00000000
Si       2.71416487       0.00097740      -2.71423089       0.00000000
Si      -0.00055223      -2.71488651      -2.71392250       0.00000000
Si      -2.71616269      -2.71296103      -0.00030839       0.00000000
Si       2.71351327       2.71608057      -0.00044546       0.00000000
