10
Lattice="16.28999089631971 0.0 0.0 0.0 16.28999089631971 0.0 0.0 0.0 34.26581377546328" Properties=species:S:1:pos:R:3:initial_magmoms:R:1 pbc="T T T"
Si      -1.92536397       0.23231169       1.26848687       0.00000000
Si       1.08435918       2.06628876       0.03101058       0.00000000
Si       0.83255325      -2.35048410       0.39491372       0.00000000
Si      -2.06162982       0.77468724      -1.82479267       0.00000000
Si      -0.38643138      -0.33744735      -2.90653075       0.00000000
Si       1.19346797       1.45433862      -2.51699676       0.00000000
Si       1.58162283      -1.20471066       2.54533460       0.00000000
Si      -2.92853475      -1.64253699       0.32028274       0.00000000
Si      -1.30950423      -3.18379905      -0.40903125       0.00000000
Si       3.33496115       1.51920540       0.34940870       0.00000000
