10
Lattice="16.28999089631971 0.0 0.0 0.0 16.28999089631971 0.0 0.0 0.0 34.26581377546328" Properties=species:S:1:pos:R:3:initial_magmoms:R:1 pbc="T T T"
Si       1.21781826       1.22587137       1.54614291       0.00000000
Si      -0.23586291       1.41592680      -1.84106894       0.00000000
Si       1.35815824      -1.89434781      -0.21734818       0.00000000
Si      -2.20105593      -0.78279966       0.44168659       0.00000000
Si       0.25804437      -0.17410752       3.21629388       0.00000000
Si      -2.66079231      -1.16369244      -1.85412422       0.00000000
Si      -0.27829836      -3.55482172      -0.49572380       0.00000000
Si      -2.40313338       1.04989050      -2.51257647       0.00000000
Si       2.00928095      -1.73799639      -2.48211414       0.00000000
Si       1.19626659       0.33544368      -3.41726299       0.00000000
