10
Lattice="16.28999089631971 0.0 0.0 0.0 16.28999089631971 0.0 0.0 0.0 34.26581377546328" Properties=species:S:1:pos:R:3:initial_magmoms:R:1 pbc="T T T"
Si       1.96429707       1.15470036       0.71821186       0.00000000
Si      -0.59702850       0.54853317      -2.31181295       0.00000000
Si       0.48729906      -2.03206347       1.31210727       0.00000000
Si      -2.11722759       0.39524427       1.29922332       0.00000000
Si       3.18457545      -0.04887000      -1.11833399       0.00000000
Si       2.42354475      -2.34940896      -1.28791560       0.00000000
Si      -2.31531399       2.76376140       1.05041911       0.00000000
Si       1.51057170       3.46116888       0.20864466       0.00000000
Si       0.13698261      -1.30261356       3.61648454       0.00000000
Si      -2.73896802      -0.34744941      -2.72433931       0.00000000
