10
Lattice="16.28999089631971 0.0 0.0 0.0 16.28999089631971 0.0 0.0 0.0 34.26581377546328" Properties=species:S:1:pos:R:3:initial_magmoms:R:1 pbc="T T T"
Si      -1.35348723      -1.35565380       1.35784188       0.00000000
Si       1.36398192       1.35255870       1.35448383       0.00000000
Si      -1.27624005       1.29456630      -1.49220164       0.00000000
Si       1.24090445      -1.38313503      -1.45238131       0.00000000
Si       0.54271179       1.94479794      -2.90127920       0.00000000
Si       2.35343978       0.42552738      -2.63921133       0.00000000
Si      -2.24450136      -0.49679613      -2.73817384       0.00000000
Si      -0.44913159      -2.30260779      -2.93201566       0.00000000
Si      -2.69573436       2.71228500      -0.03187065       0.00000000
Si      -2.70946683      -0.00047241       2.71415208       0.00000000
