10
Lattice="16.28999089631971 0.0 0.0 0.0 16.28999089631971 0.0 0.0 0.0 34.26581377546328" Properties=species:S:1:pos:R:3:initial_magmoms:R:1 pbc="T T T"
Si       0.96664860      -1.56970440      -1.62327530       0.00000000
Si      -1.45652148       1.17967293      -1.71963083       0.00000000
Si       1.62165321       1.80913482       0.88803333       0.00000000
Si      -1.38976506      -1.19334024       1.89048027       0.00000000
Si      -3.10783878       0.40850433       1.44002163       0.00000000
Si       0.40539294       2.71687619       2.64491111       0.00000000
Si      -1.94898447       2.58643239       2.04919961       0.00000000
Si       0.14661000       2.30228199      -3.13415867       0.00000000
Si       2.48694543      -2.98093968      -0.46132091       0.00000000
Si       2.64719016      -0.42324678      -2.97444563       0.00000000
