10
Lattice="16.28999089631971 0.0 0.0 0.0 16.28999089631971 0.0 0.0 0.0 34.26581377546328" Properties=species:S:1:pos:R:3:initial_magmoms:R:1 pbc="T T T"
Si      -1.12565529      -1.53046179      -1.35809202       0.00000000
Si       1.52029683      -1.41123528       1.16195439       0.00000000
Si       1.68054156       1.14645762      -1.35117032       0.00000000
Si      -0.96664860       1.56970440       1.62327530       0.00000000
Si      -2.42317008       2.74937733      -0.09635552       0.00000000
Si      -2.27773296      -0.19663659      -2.90368668       0.00000000
Si      -2.80228725      -2.42502714       0.21457265       0.00000000
Si       2.80297699       0.14791320       2.53892689       0.00000000
Si       0.44123094       2.49284241      -2.89933492       0.00000000
Si      -3.56371443       1.17307548      -1.52177991       0.00000000
