10
Lattice="16.28999089631971 0.0 0.0 0.0 16.28999089631971 0.0 0.0 0.0 34.26581377546328" Properties=species:S:1:pos:R:3:initial_magmoms:R:1 pbc="T T T"
Si      -0.04484637      -1.35236322       1.89051453       0.00000000
Si       1.68660144      -0.10259442      -1.60035146       0.00000000
Si      -1.56212955       1.76665932      -0.15580674       0.00000000
Si      -0.16594623      -2.80101663      -0.22272791       0.00000000
Si      -1.27759212      -1.90949751      -2.17557200       0.00000000
Si       0.23778513      -0.57552570      -3.39858811       0.00000000
Si       0.09348831       3.57458705      -0.23609159       0.00000000
Si       1.34894232      -0.07421724       3.38462619       0.00000000
Si      -3.19440384      -0.59870637      -1.76379948       0.00000000
Si       3.06412361      -1.88235837      -0.96896922       0.00000000
