10
Lattice="16.28999089631971 0.0 0.0 0.0 16.28999089631971 0.0 0.0 0.0 34.26581377546328" Properties=species:S:1:pos:R:3:initial_magmoms:R:1 pbc="T T T"
Si      -1.50423230       1.81061721       0.05222113       0.00000000
Si      -1.57989935      -1.79178597      -0.38953399       0.00000000
Si       2.33332421       0.03701088      -0.82402475       0.00000000
Si      -0.10910879       0.61195014       2.54800734       0.00000000
Si       2.49961253      -1.53526734       1.06525621       0.00000000
Si      -1.19346797      -1.45433862       2.51699676       0.00000000
Si      -1.40575925      -1.22137533      -2.68623571       0.00000000
Si      -3.25509779      -0.67965138       0.69220409       0.00000000
Si       0.54295547       2.24332848      -2.72314001       0.00000000
Si       2.14149317       0.06486678       2.86640546       0.00000000
