10
Lattice="16.28999089631971 0.0 0.0 0.0 16.28999089631971 0.0 0.0 0.0 34.26581377546328" Properties=species:S:1:pos:R:3:initial_magmoms:R:1 pbc="T T T"
Si       1.61754487       1.68492357      -0.12226049       0.00000000
Si      -1.43212950       1.08048312       1.57619405       0.00000000
Si       0.81301435      -2.07344007       0.93514885       0.00000000
Si      -0.74906959      -1.14577344      -2.15042088       0.00000000
Si      -1.58162283       1.20471066      -2.54533460       0.00000000
Si      -0.58596107      -3.11997809      -0.65536832       0.00000000
Si      -1.19626659      -0.33544368       3.41726299       0.00000000
Si      -3.59939997       0.71444682       0.90468652       0.00000000
Si       3.70924603       0.73485819       0.32370932       0.00000000
Si       0.16189165      -2.22979149       3.19991481       0.00000000
