10
Lattice="16.28999089631971 0.0 0.0 0.0 16.28999089631971 0.0 0.0 0.0 34.26581377546328" Properties=species:S:1:pos:R:3:initial_magmoms:R:1 pbc="T T T"
Si       0.62402103       2.20307589      -0.53180573       0.00000000
Si       1.17659412      -1.90977444      -0.79503586       0.00000000
Si      -2.40422155      -0.18231768       0.02919449       0.00000000
Si       0.26515233      -0.40060368       2.37729496       0.00000000
Si      -0.59152248      -3.23278308       0.02470567       0.00000000
Si      -1.19630502      -2.25966735       2.20219655       0.00000000
Si      -1.31825196       3.35362230       0.43425090       0.00000000
Si      -3.20681682       1.98772209      -0.19706281       0.00000000
Si       3.01288437       2.31625881      -0.11938216       0.00000000
Si       2.99343411      -2.39546079       0.70967967       0.00000000
