10
Lattice="16.28999089631971 0.0 0.0 0.0 16.28999089631971 0.0 0.0 0.0 34.26581377546328" Properties=species:S:1:pos:R:3:initial_magmoms:R:1 pbc="T T T"
Si      -1.21781826      -1.22587137      -1.54614291       0.00000000
Si      -0.80259527       2.17003977      -0.22625729       0.00000000
Si      -0.95977389      -1.39997889       1.67015096       0.00000000
Si       2.40422155       0.18231768      -0.02919449       0.00000000
Si       1.20791653      -2.07734967       2.17300206       0.00000000
Si       1.81269907      -3.05046540      -0.00448882       0.00000000
Si       2.66937388      -0.21828600       2.34810047       0.00000000
Si       0.14033998      -3.12021918      -1.76349109       0.00000000
Si      -0.94148821       2.35939473      -2.57103398       0.00000000
Si      -1.45368117       0.19005543      -3.38721185       0.00000000
