10
Lattice="16.28999089631971 0.0 0.0 0.0 16.28999089631971 0.0 0.0 0.0 34.26581377546328" Properties=species:S:1:pos:R:3:initial_magmoms:R:1 pbc="T T T"
Si      -1.35701133       1.35705474      -1.35699552       0.00000000
Si       1.35743276      -1.35728280      -1.35672139       0.00000000
Si      -1.35764664      -1.35705474       1.35850321       0.00000000
Si       1.35851768       1.35731538       1.35836615       0.00000000
Si      -2.71364253      -0.00089595      -2.71388823       0.00000000
Si      -0.00037328      -2.71342530      -2.71471061       0.00000000
Si       2.71521892      -0.00006516      -2.71316865       0.00000000
Si      -2.71463622      -2.71482624      -0.00006853       0.00000000
Si       2.71556101      -0.00329058       2.71423089       0.00000000
Si       2.71500715       2.71507059       0.00037692       0.00000000
