10
Lattice="16.28999089631971 0.0 0.0 0.0 16.28999089631971 0.0 0.0 0.0 34.26581377546328" Properties=species:S:1:pos:R:3:initial_magmoms:R:1 pbc="T T T"
Si       2.02349330      -0.51782652       1.12594100       0.00000000
Si      -0.27672705       2.03742288       1.30504851       0.00000000
Si      -1.20467061      -2.08653723       0.42565018       0.00000000
Si       0.77743699       0.61634844      -2.24989459       0.00000000
Si      -2.62822113      -0.79594569       1.80090938       0.00000000
Si      -0.94952034      -0.82890036       3.39485313       0.00000000
Si      -1.06965909      -2.74786236      -2.16135168       0.00000000
Si       1.27236303      -1.46346102       3.13518665       0.00000000
Si      -0.50524317      -0.94280004      -3.62686709       0.00000000
Si      -0.59746086       1.44058986       3.55977459       0.00000000
