10
Lattice="16.28999089631971 0.0 0.0 0.0 16.28999089631971 0.0 0.0 0.0 34.26581377546328" Properties=species:S:1:pos:R:3:initial_magmoms:R:1 pbc="T T T"
Si       2.11432797       0.38107197       0.97116224       0.00000000
Si      -0.60256547       2.12081139      -0.84732552       0.00000000
Si      -1.97213696      -0.38343402       1.25861831       0.00000000
Si       0.56534445      -1.94833287      -1.25601411       0.00000000
Si       0.30978693       3.32726508       0.98973432       0.00000000
Si       0.70113789      -0.90934038      -3.32967952       0.00000000
Si      -2.48432993      -2.55277332       0.44244043       0.00000000
Si       3.71371275      -0.87184080      -0.27409240       0.00000000
Si       2.57610060       2.72671794       0.81816529       0.00000000
Si       1.99759383      -0.35743518       3.26865207       0.00000000
