10
Lattice="16.28999089631971 0.0 0.0 0.0 16.28999089631971 0.0 0.0 0.0 34.26581377546328" Properties=species:S:1:pos:R:3:initial_magmoms:R:1 pbc="T T T"
Si      -1.35635916      -1.35786435       1.35840041       0.00000000
Si       1.35835794       1.35799956       1.35809202       0.00000000
Si      -1.35472201       1.35674523      -1.36319763       0.00000000
Si       1.36001952      -1.35976540      -1.35774936       0.00000000
Si       2.71559187      -2.71401050       0.00037692       0.00000000
Si      -2.71395961       0.00053757       2.71577285       0.00000000
Si       0.00084708      -2.71453933       2.71539593       0.00000000
Si       0.00073305       2.71507059       2.71525887       0.00000000
Si       2.71492398       2.71564074       0.00047972       0.00000000
Si       2.71547784       0.00068418       2.71532740       0.00000000
