10
Lattice="16.28999089631971 0.0 0.0 0.0 16.28999089631971 0.0 0.0 0.0 34.26581377546328" Properties=species:S:1:pos:R:3:initial_magmoms:R:1 pbc="T T T"
Si       1.34065071       1.35918552      -1.38320888       0.00000000
Si      -1.37813400      -1.35174420      -1.38372287       0.00000000
Si      -1.31362560       1.39551659       1.44087827       0.00000000
Si       1.42917057      -1.33874478       1.53401281       0.00000000
Si       2.70151731      -2.71248048       0.00174756       0.00000000
Si      -2.70491703       2.71642496      -0.02916022       0.00000000
Si       2.69869914       2.72454227       0.01387766       0.00000000
Si       2.69806383       0.00296478      -2.74599532       0.00000000
Si      -2.74892284      -2.69752626      -0.01154759       0.00000000
Si      -0.01729998      -2.71205694      -2.74476175       0.00000000
