10
Lattice="16.28999089631971 0.0 0.0 0.0 16.28999089631971 0.0 0.0 0.0 34.26581377546328" Properties=species:S:1:pos:R:3:initial_magmoms:R:1 pbc="T T T"
Si       1.69243000       1.00442627      -1.32605347       0.00000000
Si      -1.66657518       1.75509993      -0.39241232       0.00000000
Si      -1.19387196      -1.75638780      -1.24957213       0.00000000
Si      -0.00293057      -0.35316720       2.50935548       0.00000000
Si      -2.21940891       0.47599380       2.61290682       0.00000000
Si      -1.59885765       2.68725446       1.68399436       0.00000000
Si       0.30113857       2.32533464      -2.79609197       0.00000000
Si      -2.43318258      -0.41000301      -2.79773673       0.00000000
Si       2.61043666       2.68283987       0.24801610       0.00000000
Si      -0.07143654      -2.75493222       2.64052509       0.00000000
