10
Lattice="16.28999089631971 0.0 0.0 0.0 16.28999089631971 0.0 0.0 0.0 34.3005442915855" Properties=species:S:1:pos:R:3:initial_magmoms:R:1 pbc="T T T"
Si      -1.22939720       1.41773010       1.42905752       0.00000000
Si       1.11425229       1.14798399      -1.78645365       0.00000000
Si       1.48574574      -1.32660451       1.41041859       0.00000000
Si      -1.89363824      -0.82843121      -1.32329314       0.00000000
Si       2.69537598       2.56796700      -0.09374687       0.00000000
Si      -2.65959404      -2.64353698       0.08531579       0.00000000
Si      -2.42135279       2.92662393      -0.11918760       0.00000000
Si      -2.58689177       0.03522224       2.80554942       0.00000000
Si       2.75822280      -2.68207912      -0.18596050       0.00000000
Si       0.13060508      -2.67851161       2.80318268       0.00000000
