10
Lattice="16.28999089631971 0.0 0.0 0.0 16.28999089631971 0.0 0.0 0.0 34.3005442915855" Properties=species:S:1:pos:R:3:initial_magmoms:R:1 pbc="T T T"
Si       0.63583128      -1.14139143      -1.98795776       0.00000000
Si      -0.07924270      -1.49437944       1.85432276       0.00000000
Si      -2.16355702       1.07064463      -0.67887675       0.00000000
Si       2.19472564       1.21324240       0.64443899       0.00000000
Si      -0.98660452       0.53625933       3.18226908       0.00000000
Si       0.94622420       0.87532916      -3.15091836       0.00000000
Si       2.70593842      -1.99462905      -1.37298295       0.00000000
Si       3.59612176      -0.67331457       0.43596016       0.00000000
Si       1.11733599       3.01531877      -2.05734780       0.00000000
Si      -2.66856331       0.58284384      -2.93839207       0.00000000
