10
Lattice="16.28999089631971 0.0 0.0 0.0 16.28999089631971 0.0 0.0 0.0 34.3005442915855" Properties=species:S:1:pos:R:3:initial_magmoms:R:1 pbc="T T T"
Si      -1.35589815      -1.35700124      -1.35768490       0.00000000
Si      -1.35733167       1.35738706       1.35717039       0.00000000
Si       1.35819504      -1.35789352       1.35734190       0.00000000
Si       1.35840681       1.35743593      -1.35926273       0.00000000
Si      -2.71502172      -0.00089106       2.71338037       0.00000000
Si      -2.71433754      -2.71513642      -0.00034301       0.00000000
Si      -0.00104256       2.71533775       2.71434079       0.00000000
Si       2.71518462      -2.71497352      -0.00030871       0.00000000
Si       2.71523349       2.71520743      -0.00017150       0.00000000
Si      -2.71516833       2.71537033      -0.00054881       0.00000000
