10
Lattice="16.28999089631971 0.0 0.0 0.0 16.28999089631971 0.0 0.0 0.0 34.3005442915855" Properties=species:S:1:pos:R:3:initial_magmoms:R:1 pbc="T T T"
Si       2.22723396       0.87553863      -0.61428879       0.00000000
Si      -0.48617505       2.49258177       0.02661724       0.00000000
Si       0.04204449      -2.10840560      -1.64227668       0.00000000
Si      -0.30392253      -2.20766057       1.64642705       0.00000000
Si       2.72060919       0.26810082       1.60279673       0.00000000
Si       0.93608856      -0.68022316       3.04008093       0.00000000
Si       1.35788553       2.90009241      -1.36121786       0.00000000
Si      -2.46902643       0.96567120      -2.41366205       0.00000000
Si      -2.07065448      -2.80244105      -1.05361041       0.00000000
Si      -3.47205060      -0.91588407      -0.84513158       0.00000000
