10
Lattice="16.28999089631971 0.0 0.0 0.0 16.28999089631971 0.0 0.0 0.0 34.3005442915855" Properties=species:S:1:pos:R:3:initial_magmoms:R:1 pbc="T T T"
Si      -1.24662483       1.41755580      -1.40148672       0.00000000
Si       1.44506961      -1.31908275      -1.37720192       0.00000000
Si      -1.93007178      -0.70100757       1.25512622       0.00000000
Si       1.76941980       0.66466458       1.49468135       0.00000000
Si      -0.96467751      -1.20498759       3.30708883       0.00000000
Si      -2.53705347       2.76353334      -0.00415037       0.00000000
Si       0.50303520       0.73419030       3.66014453       0.00000000
Si       2.69724933       2.66269824       0.11689632       0.00000000
Si      -2.61759123       0.05488101      -2.74836695       0.00000000
Si       0.09482409      -2.65818591      -2.75231151       0.00000000
