10
Lattice="16.28999089631971 0.0 0.0 0.0 16.28999089631971 0.0 0.0 0.0 34.3005442915855" Properties=species:S:1:pos:R:3:initial_magmoms:R:1 pbc="T T T"
Si       1.34816040       1.32962238       1.35463901       0.00000000
Si       1.36288656      -1.33167492      -1.36068620       0.00000000
Si      -1.36666584      -1.38557853       1.34671558       0.00000000
Si      -0.99377145       1.51285230      -1.55195986       0.00000000
Si      -1.95892137      -0.34394706      -2.75677886       0.00000000
Si      -0.43201080      -2.31515109      -2.57127931       0.00000000
Si      -2.70905958       2.68692147      -0.05115586       0.00000000
Si      -0.00666261       2.68755678       2.70992288       0.00000000
Si       2.71608057       2.69114058      -0.01367220       0.00000000
Si       2.70852201      -0.02362050       2.71019728       0.00000000
