10
Lattice="16.28999089631971 0.0 0.0 0.0 16.28999089631971 0.0 0.0 0.0 34.3005442915855" Properties=species:S:1:pos:R:3:initial_magmoms:R:1 pbc="T T T"
Si       1.35799956      -1.35637056       1.36197247       0.00000000
Si      -1.35640314       1.36076886       1.36022314       0.00000000
Si      -1.34439741      -1.35700587      -1.39910626       0.00000000
Si       1.35314514       1.37314926      -1.39217069       0.00000000
Si       2.71282257      -2.71430496       0.00668861       0.00000000
Si       2.71347417       2.71577106       0.00140632       0.00000000
Si      -2.71557069      -2.71520091      -0.00061741       0.00000000
Si      -2.71491583       2.71660185      -0.00034301       0.00000000
Si       0.00021177      -2.71337643       2.71852546       0.00000000
Si       2.71482624       0.00206883       2.71879986       0.00000000
