10
Lattice="16.28999089631971 0.0 0.0 0.0 16.28999089631971 0.0 0.0 0.0 34.3005442915855" Properties=species:S:1:pos:R:3:initial_magmoms:R:1 pbc="T T T"
Si      -1.35682668      -1.35798327       1.35641578       0.00000000
Si      -1.35703845       1.35674523      -1.35806221       0.00000000
Si       1.35754344      -1.35726651      -1.35751340       0.00000000
Si       1.35803214       1.35835794       1.35730760       0.00000000
Si      -0.00188964       2.71492398       2.71293447       0.00000000
Si       0.00074934       2.71375110      -2.71461519       0.00000000
Si      -2.71435383       2.71415835      -0.00089181       0.00000000
Si       0.00231318      -2.71397916      -2.71471810       0.00000000
Si       0.00109143      -2.71445157       2.71482100       0.00000000
Si       2.71529865       2.71446786      -0.00034301       0.00000000
