10
Lattice="16.28999089631971 0.0 0.0 0.0 16.28999089631971 0.0 0.0 0.0 34.3005442915855" Properties=species:S:1:pos:R:3:initial_magmoms:R:1 pbc="T T T"
Si       1.35726651       1.35610992      -1.35765060       0.00000000
Si      -1.35992178       1.35656604       1.35562687       0.00000000
Si       1.35547461      -1.35731538       1.35970864       0.00000000
Si      -1.35803214      -1.35835794      -1.35730760       0.00000000
Si      -2.69838963       0.00293220       2.70833819       0.00000000
Si      -2.71521720       2.71230129      -0.00133772       0.00000000
Si       2.71422351      -0.00099369      -2.71461519       0.00000000
Si      -0.00045612       2.71383255      -2.71509540       0.00000000
Si      -2.71507059      -0.00161271      -2.71536981       0.00000000
Si      -0.00048870      -2.71562445      -2.71482100       0.00000000
