10
Lattice="16.28999089631971 0.0 0.0 0.0 16.28999089631971 0.0 0.0 0.0 34.3005442915855" Properties=species:S:1:pos:R:3:initial_magmoms:R:1 pbc="T T T"
Si      -1.33846785      -1.35363384       1.35271132       0.00000000
Si      -1.35529542       1.35573525      -1.35696459       0.00000000
Si       1.35992178      -1.35656604      -1.35562687       0.00000000
Si       1.36484136       1.34987085       1.37637871       0.00000000
Si      -2.62889649      -0.00765630       2.75004768       0.00000000
Si      -2.71181259       2.71164969       0.00250394       0.00000000
Si      -2.70943425      -2.71630863       0.00583110       0.00000000
Si      -2.71246419      -0.00076563      -2.71382628       0.00000000
Si       0.00184077       2.71446786      -2.71310597       0.00000000
Si       0.00188964      -2.71492398      -2.71293447       0.00000000
