10
Lattice="16.28999089631971 0.0 0.0 0.0 16.28999089631971 0.0 0.0 0.0 34.3005442915855" Properties=species:S:1:pos:R:3:initial_magmoms:R:1 pbc="T T T"
Si      -2.13988698      -0.90609867       0.48778831       0.00000000
Si      -0.22169061       0.18432135      -2.38176253       0.00000000
Si      -0.55227987       2.09122875       1.06455229       0.00000000
Si       1.82656512      -1.28627469       0.94782747       0.00000000
Si      -2.77825950       1.38565998       0.73485527       0.00000000
Si      -1.33239168      -2.58220935       2.02980444       0.00000000
Si       1.55939283       1.69547949      -2.73533273       0.00000000
Si       0.78104034      -3.35777625       1.24613947       0.00000000
Si       0.10510308      -2.01600153      -3.14313213       0.00000000
Si       3.65650227      -0.95822667      -0.50583041       0.00000000
