10
Lattice="16.28999089631971 0.0 0.0 0.0 16.28999089631971 0.0 0.0 0.0 34.3005442915855" Properties=species:S:1:pos:R:3:initial_magmoms:R:1 pbc="T T T"
Si      -0.14312394       0.58189509       2.25128318       0.00000000
Si       0.31710114       2.07967914      -1.02095627       0.00000000
Si      -2.22597963      -0.70556877      -0.32969702       0.00000000
Si       0.55227987      -2.09122875      -1.06455229       0.00000000
Si      -1.58760711      -2.99732742      -0.57676397       0.00000000
Si      -2.99537262       0.85502952      -1.93139613       0.00000000
Si      -1.87129746       2.83879314      -1.38039188       0.00000000
Si      -0.95845473      -1.25208198       3.39592729       0.00000000
Si       2.02439088       1.07733915       3.00472936       0.00000000
Si       1.31445639       1.72108737      -3.15469142       0.00000000
