10
Lattice="16.28999089631971 0.0 0.0 0.0 16.28999089631971 0.0 0.0 0.0 34.3005442915855" Properties=species:S:1:pos:R:3:initial_magmoms:R:1 pbc="T T T"
Si      -0.81533079      -1.83397707       1.14464410       0.00000000
Si       0.14312394      -0.58189509      -2.25128318       0.00000000
Si       2.16751482       0.49544406       0.75344618       0.00000000
Si      -1.25029008       1.98127125       0.27052854       0.00000000
Si      -2.08285569      -1.28746386      -2.58098020       0.00000000
Si       2.18810538       2.79852426       0.39709762       0.00000000
Si       0.46022508       1.49778405      -3.27223945       0.00000000
Si       1.15356006      -3.19630977       1.28071444       0.00000000
Si      -1.11570210      -1.05915951       3.32537103       0.00000000
Si       3.58389774      -0.85814091      -0.57511755       0.00000000
