10
Lattice="16.28999089631971 0.0 0.0 0.0 16.28999089631971 0.0 0.0 0.0 34.3005442915855" Properties=species:S:1:pos:R:3:initial_magmoms:R:1 pbc="T T T"
Si       2.21092767      -0.33987456      -0.82588897       0.00000000
Si      -0.99276147       0.38825586       2.13599899       0.00000000
Si      -1.50333894      -1.94988042      -0.26034128       0.00000000
Si      -0.76320279       1.76262428      -1.59885216       0.00000000
Si      -1.00800891       2.61608345       1.41362912       0.00000000
Si       2.24438733      -2.61785187      -0.34454916       0.00000000
Si      -3.28975898      -0.72224973      -1.31134484       0.00000000
Si      -2.07529713       0.39227949      -3.01385331       0.00000000
Si       0.94630239      -2.06107596      -2.95554235       0.00000000
Si      -2.55002031       2.71338362      -0.35219819       0.00000000
