10
Lattice="16.28999089631971 0.0 0.0 0.0 16.28999089631971 0.0 0.0 0.0 34.3005442915855" Properties=species:S:1:pos:R:3:initial_magmoms:R:1 pbc="T T T"
Si      -0.31710114      -2.07967914       1.02095627       0.00000000
Si      -2.18839860       0.75911400      -0.35943560       0.00000000
Si       0.99735525      -0.35859177      -2.13373515       0.00000000
Si       1.32885675       1.45521828       1.35717039       0.00000000
Si       3.21608583       0.67535082       0.26140459       0.00000000
Si       2.79912699       1.17667557      -1.98373879       0.00000000
Si      -0.46022508      -1.49778405       3.27223945       0.00000000
Si      -3.31247376      -1.22464962      -0.91043986       0.00000000
Si      -1.82123829       2.64143979      -1.85295074       0.00000000
Si      -3.14103780       1.09542105       1.76637612       0.00000000
