10
Lattice="16.28999089631971 0.0 0.0 0.0 16.28999089631971 0.0 0.0 0.0 34.3005442915855" Properties=species:S:1:pos:R:3:initial_magmoms:R:1 pbc="T T T"
Si       1.79749073      -0.05721211      -1.50792137       0.00000000
Si      -0.31039292      -2.01672059       1.16296060       0.00000000
Si      -1.86182061       0.02637677      -1.44693497       0.00000000
Si       0.17111179       2.13998961       1.09357056       0.00000000
Si      -0.91825101       1.93328580      -2.58022559       0.00000000
Si      -0.94622420      -0.87532916       3.15091836       0.00000000
Si      -0.67529543       3.32287167      -0.73945155       0.00000000
Si       1.78954121      -2.38684568      -1.82835723       0.00000000
Si      -3.61478751      -0.29248532       0.21252629       0.00000000
Si       1.15017500       1.25281992      -3.36636020       0.00000000
