10
Lattice="16.28999089631971 0.0 0.0 0.0 16.28999089631971 0.0 0.0 0.0 34.3005442915855" Properties=species:S:1:pos:R:3:initial_magmoms:R:1 pbc="T T T"
Si       0.58805271      -0.89798040       2.08372493       0.00000000
Si      -0.57073644       2.26653847       0.31460477       0.00000000
Si       1.44015003       0.17946530      -1.89071566       0.00000000
Si      -1.66467510      -1.43603910      -1.05364471       0.00000000
Si      -0.41977701      -0.63527157      -3.20792590       0.00000000
Si      -1.24481664       0.11667061       3.19173603       0.00000000
Si      -1.81592775       2.29965604       2.34204247       0.00000000
Si       2.61464274      -0.09220792       2.97598549       0.00000000
Si      -3.87560277      -1.09616454      -0.22775574       0.00000000
Si       1.07820252      -3.24794322       2.15585901       0.00000000
