10
Lattice="16.28999089631971 0.0 0.0 0.0 16.28999089631971 0.0 0.0 0.0 34.3005442915855" Properties=species:S:1:pos:R:3:initial_magmoms:R:1 pbc="T T T"
Si       1.22930856      -1.26566784      -1.57686550       0.00000000
Si       1.10864853       1.52508609       1.48833575       0.00000000
Si      -1.02177396      -1.88563103       1.08935159       0.00000000
Si      -1.46906478       1.41428151      -1.54452007       0.00000000
Si       2.61415404      -2.48857280      -0.17026800       0.00000000
Si       0.80034399      -3.50600615       0.89606792       0.00000000
Si       2.49447141       2.80297143      -0.05199965       0.00000000
Si      -0.95623929       2.57673591       2.57813325       0.00000000
Si       2.58264918       0.07143165      -2.93568232       0.00000000
Si      -2.72114676       2.84361498      -0.10187267       0.00000000
