10
Lattice="16.28999089631971 0.0 0.0 0.0 16.28999089631971 0.0 0.0 0.0 34.3005442915855" Properties=species:S:1:pos:R:3:initial_magmoms:R:1 pbc="T T T"
Si       1.32506118       1.90462680       0.50504150       0.00000000
Si       1.43547480      -1.73823227      -0.78448819       0.00000000
Si      -1.27104354       0.26064000      -2.06434511       0.00000000
Si      -2.26253439       0.54477018       1.79748673       0.00000000
Si      -2.75590962       1.15220799      -0.41959879       0.00000000
Si       0.78550380      -2.24608868       1.86670526       0.00000000
Si       1.40929677      -0.34283771       3.21631380       0.00000000
Si       3.03088482       0.74038050       1.87013532       0.00000000
Si       1.56747267       2.81325042      -1.75262159       0.00000000
Si       0.13168836       1.77376923      -3.30297276       0.00000000
