10
Lattice="16.28999089631971 0.0 0.0 0.0 16.28999089631971 0.0 0.0 0.0 34.3005442915855" Properties=species:S:1:pos:R:3:initial_magmoms:R:1 pbc="T T T"
Si       1.35659862       1.35625653       1.35744480       0.00000000
Si       1.35720135      -1.35731538      -1.35744480       0.00000000
Si      -1.35772263       1.35808101      -1.35730760       0.00000000
Si      -1.35907470      -1.35718506       1.35706749       0.00000000
Si      -2.71295289       0.00136836      -2.71451229       0.00000000
Si      -2.71417464       0.00089595       2.71502680       0.00000000
Si       2.71446786       2.71474479      -0.00003430       0.00000000
Si       2.71495656      -2.71485882      -0.00010290       0.00000000
Si      -2.71536381      -2.71513575      -0.00010290       0.00000000
Si      -2.71526607       2.71534752       0.00020580       0.00000000
