10
Lattice="16.28999089631971 0.0 0.0 0.0 16.28999089631971 0.0 0.0 0.0 34.3005442915855" Properties=species:S:1:pos:R:3:initial_magmoms:R:1 pbc="T T T"
Si      -2.13509772      -0.94071492      -0.22086133       0.00000000
Si       1.90236249      -1.22642523       0.61675843       0.00000000
Si      -0.24544143       1.63756854       1.73265866       0.00000000
Si       0.97759548       0.56716893      -2.14594615       0.00000000
Si       3.27469725       0.57925611       1.42014623       0.00000000
Si      -1.00142775       1.06463295      -3.34523105       0.00000000
Si       1.32416523      -2.30931927       2.60670562       0.00000000
Si       2.31990777       2.46959658      -1.66416044       0.00000000
Si       1.70326611       1.52906085       3.06132529       0.00000000
Si      -2.28258738      -2.07658404      -2.29666283       0.00000000
