10
Lattice="16.28999089631971 0.0 0.0 0.0 16.28999089631971 0.0 0.0 0.0 34.3005442915855" Properties=species:S:1:pos:R:3:initial_magmoms:R:1 pbc="T T T"
Si      -1.35747828       1.35796698      -1.35706749       0.00000000
Si       1.35765747       1.35760860       1.35744480       0.00000000
Si       1.35799956      -1.35738054      -1.35754770       0.00000000
Si      -1.35786924      -1.35848826       1.35747910       0.00000000
Si      -2.71379997       0.00317655      -2.71410068       0.00000000
Si       0.00200367      -2.71345788      -2.71536981       0.00000000
Si      -2.71446786      -2.71474479       0.00003430       0.00000000
Si      -2.71443528       2.71507059      -0.00010290       0.00000000
Si       2.71536381      -2.71500543      -0.00003430       0.00000000
Si       2.71528236       2.71538010       0.00048021       0.00000000
