10
Lattice="16.28999089631971 0.0 0.0 0.0 16.28999089631971 0.0 0.0 0.0 34.3005442915855" Properties=species:S:1:pos:R:3:initial_magmoms:R:1 pbc="T T T"
Si       1.35944937      -1.35562122      -1.36042895       0.00000000
Si      -1.35477414       1.36213722      -1.36176667       0.00000000
Si      -1.35998694      -1.34557029       1.37658451       0.00000000
Si       1.36352187       1.36218609       1.37263995       0.00000000
Si      -2.70795186       2.71321353      -0.00572819       0.00000000
Si      -2.71443528      -2.71158453      -0.00061741       0.00000000
Si       2.71482624      -2.71174743       0.00150922       0.00000000
Si      -2.71264338       0.00184077      -2.71797665       0.00000000
Si       0.00179190      -2.71322982      -2.71787375       0.00000000
Si       2.71375110       2.71829601       0.00061741       0.00000000
