10
Lattice="16.28999089631971 0.0 0.0 0.0 16.28999089631971 0.0 0.0 0.0 34.3005442915855" Properties=species:S:1:pos:R:3:initial_magmoms:R:1 pbc="T T T"
Si      -1.65434724      -0.21178629      -1.68395186       0.00000000
Si       0.45292716      -2.39446710       0.15116258       0.00000000
Si      -1.13282289       0.45118413       2.17273489       0.00000000
Si       1.96600752       1.30684896      -1.09874995       0.00000000
Si       0.58850883       2.47378311      -2.71468379       0.00000000
Si      -0.51798942       0.52893630      -3.68837389       0.00000000
Si      -3.23314146       1.57589460      -1.42254727       0.00000000
Si       0.46892394       1.49543829       3.59002187       0.00000000
Si       3.18493935       2.18015586       0.83086255       0.00000000
Si       2.01640878      -2.80916163       1.94144619       0.00000000
