10
Lattice="16.28999089631971 0.0 0.0 0.0 16.28999089631971 0.0 0.0 0.0 34.3005442915855" Properties=species:S:1:pos:R:3:initial_magmoms:R:1 pbc="T T T"
Si       1.35522847      -1.35438318      -1.35583267       0.00000000
Si      -1.35828058      -1.35607734       1.35658728       0.00000000
Si       1.35658054       1.35826020       1.35669019       0.00000000
Si      -1.35730318       1.35498591      -1.36238408       0.00000000
Si       2.71360759      -2.71130760      -0.00188653       0.00000000
Si      -0.00309919      -2.69039124      -2.73674935       0.00000000
Si      -0.00109217      -2.71401174       2.71379198       0.00000000
Si       2.71419403       0.00115659       2.71434079       0.00000000
Si      -2.71579144      -2.71397916       0.00061741       0.00000000
Si      -2.71582402       0.00102627       2.71403208       0.00000000
