10
Lattice="16.28999089631971 0.0 0.0 0.0 16.28999089631971 0.0 0.0 0.0 34.3005442915855" Properties=species:S:1:pos:R:3:initial_magmoms:R:1 pbc="T T T"
Si       1.83060504       1.34754138      -0.12283032       0.00000000
Si      -1.72467117       0.54260361      -1.52325372       0.00000000
Si       0.47069955      -1.97576523       1.28116035       0.00000000
Si      -0.06361245       2.24191125       1.17479430       0.00000000
Si      -2.33494344       1.73574837       1.87733844       0.00000000
Si       3.26627532       0.26914338       1.30047156       0.00000000
Si      -0.65917485      -0.05183478      -3.51131438       0.00000000
Si      -3.07314108      -1.37624436      -1.21094709       0.00000000
Si      -0.18823095       3.69833892      -0.70312725       0.00000000
Si      -1.49968998      -2.40109713       2.49052961       0.00000000
