10
Lattice="16.28999089631971 0.0 0.0 0.0 16.28999089631971 0.0 0.0 0.0 34.3005442915855" Properties=species:S:1:pos:R:3:initial_magmoms:R:1 pbc="T T T"
Si       1.35788553      -1.35486773       1.35792501       0.00000000
Si      -1.35676152      -1.35673919      -1.35741050       0.00000000
Si       1.35819839       1.35753855      -1.35713609       0.00000000
Si      -1.35886293       1.35980286       1.35665589       0.00000000
Si       2.70493236       0.00077540       2.71379198       0.00000000
Si      -2.71267596      -2.71413784       0.00017150       0.00000000
Si      -2.71220355       0.02270337       2.71547271       0.00000000
Si      -2.71301805       2.71529376       0.00017150       0.00000000
Si      -2.71407690      -0.00005701      -2.71451229       0.00000000
Si       0.00092853      -2.71451251      -2.71427219       0.00000000
