10
Lattice="16.28999089631971 0.0 0.0 0.0 16.28999089631971 0.0 0.0 0.0 34.3005442915855" Properties=species:S:1:pos:R:3:initial_magmoms:R:1 pbc="T T T"
Si       1.86182061      -0.02637677       1.44693497       0.00000000
Si      -0.90994311      -1.39745950      -1.70322878       0.00000000
Si       0.94356960       1.90690903      -1.13329062       0.00000000
Si      -1.75296690      -0.31886209       1.65946126       0.00000000
Si      -2.07547632       0.50968478      -2.46823425       0.00000000
Si      -1.13531526       3.07356625       0.97046584       0.00000000
Si      -2.52498258       2.16644131      -0.80770967       0.00000000
Si       1.18652517       3.29649490       0.70748342       0.00000000
Si      -1.97763858      -2.67224974       1.43695351       0.00000000
Si       1.55142769      -2.04309736       2.60989557       0.00000000
