10
Lattice="16.28999089631971 0.0 0.0 0.0 16.28999089631971 0.0 0.0 0.0 34.3005442915855" Properties=species:S:1:pos:R:3:initial_magmoms:R:1 pbc="T T T"
Si      -1.43547480       1.73823227       0.78448819       0.00000000
Si      -1.33514469      -1.43975844      -1.36927849       0.00000000
Si       2.04103926       0.95641978      -1.18926914       0.00000000
Si      -0.64997100      -0.50785641       2.65119345       0.00000000
Si      -2.70651834       1.99887227      -1.27985692       0.00000000
Si       1.53603297       0.46861899      -3.44878445       0.00000000
Si      -2.78404245      -0.06479859      -2.61699579       0.00000000
Si      -0.11041362       3.64285907       1.28952968       0.00000000
Si       0.93833658      -2.56437117       2.78994544       0.00000000
Si      -0.06015897      -3.22240572      -2.28548084       0.00000000
