10
Lattice="16.28999089631971 0.0 0.0 0.0 16.28999089631971 0.0 0.0 0.0 34.3005442915855" Properties=species:S:1:pos:R:3:initial_magmoms:R:1 pbc="T T T"
Si      -0.50500629      -0.48780079      -2.25951532       0.00000000
Si      -0.10357182       2.35366717      -0.60670837       0.00000000
Si       2.16355702      -1.07064463       0.67887675       0.00000000
Si      -2.04103926      -0.95641978       1.18926914       0.00000000
Si       1.94325986       3.19377505       0.13414950       0.00000000
Si      -2.26250181       1.04243620      -2.82739545       0.00000000
Si       2.79938830      -2.21203606      -1.30908100       0.00000000
Si      -0.72967797      -2.84118844      -2.48202307       0.00000000
Si       3.10978122      -0.19531547      -2.47204161       0.00000000
Si       3.28089301       1.94467414      -1.37847104       0.00000000
