10
Lattice="16.28999089631971 0.0 0.0 0.0 16.28999089631971 0.0 0.0 0.0 34.3005442915855" Properties=species:S:1:pos:R:3:initial_magmoms:R:1 pbc="T T T"
Si      -1.34537481      -1.35280305      -1.37595338       0.00000000
Si       1.35730318      -1.35498591       1.36238408       0.00000000
Si      -1.35769005       1.36238157       1.36077195       0.00000000
Si       1.36023129       1.37386602      -1.39339179       0.00000000
Si      -2.65228893       0.03168405      -2.75910645       0.00000000
Si       2.71253165      -2.70936909       0.00655141       0.00000000
Si      -2.71184517      -2.71588509       0.00113192       0.00000000
Si      -0.00097740      -2.71106325       2.71897136       0.00000000
Si       2.71355140       2.71656927      -0.00051451       0.00000000
Si       2.71388372       0.00327429       2.71907427       0.00000000
