10
Lattice="16.28999089631971 0.0 0.0 0.0 16.28999089631971 0.0 0.0 0.0 34.3005442915855" Properties=species:S:1:pos:R:3:initial_magmoms:R:1 pbc="T T T"
Si       1.83081748      -0.80832609      -1.41349192       0.00000000
Si      -0.73314774       1.98123867      -1.24610517       0.00000000
Si      -1.68109542      -1.81605807       0.17050810       0.00000000
Si      -1.36806678       0.04593780       2.89795171       0.00000000
Si      -2.13449499       0.57436911      -2.72219562       0.00000000
Si      -1.54575810       3.10189293       0.71695038       0.00000000
Si       0.63726480      -2.16078705      -2.88941086       0.00000000
Si      -2.98756971       1.35871632       1.70700184       0.00000000
Si      -0.64868409      -3.42255343      -1.32568248       0.00000000
Si      -3.52031787      -0.70351623      -1.18186021       0.00000000
