10
Lattice="16.28999089631971 0.0 0.0 0.0 16.28999089631971 0.0 0.0 0.0 34.3005442915855" Properties=species:S:1:pos:R:3:initial_magmoms:R:1 pbc="T T T"
Si      -1.31745375      -0.93432924       1.73505970       0.00000000
Si      -1.61950293       1.31277852      -1.19094986       0.00000000
Si       1.57286466       1.32748839       1.24342973       0.00000000
Si       1.36806678      -0.04593780      -2.89795171       0.00000000
Si      -0.31302864      -1.86199587      -2.72744360       0.00000000
Si       0.22703373      -2.14811343       2.99495370       0.00000000
Si       0.59393340      -3.61086583      -0.83734536       0.00000000
Si      -0.17769132       3.05595513      -2.18100133       0.00000000
Si       1.51312923      -3.24763956       1.34712033       0.00000000
Si      -2.93930244       2.51934624       0.52407831       0.00000000
