10
Lattice="16.28999089631971 0.0 0.0 0.0 16.28999089631971 0.0 0.0 0.0 34.3005442915855" Properties=species:S:1:pos:R:3:initial_magmoms:R:1 pbc="T T T"
Si      -1.35684297      -1.35619137      -1.35802791       0.00000000
Si       1.35704046      -1.35731538       1.35734190       0.00000000
Si      -1.35775521       1.35785295       1.35813081       0.00000000
Si       1.35841429       1.35842310      -1.35737620       0.00000000
Si       2.71445876       0.00115659       2.71416929       0.00000000
Si      -2.71503801      -2.71490769       0.00010290       0.00000000
Si       2.71470636       2.71529865      -0.00024010       0.00000000
Si       2.71473080      -2.71529865       0.00027440       0.00000000
Si      -2.71538010       0.00008145       2.71509540       0.00000000
Si      -2.71528236       2.71536381       0.00041161       0.00000000
