10
Lattice="16.28999089631971 0.0 0.0 0.0 16.28999089631971 0.0 0.0 0.0 34.3005442915855" Properties=species:S:1:pos:R:3:initial_magmoms:R:1 pbc="T T T"
Si       1.35871008       1.33586145      -1.38207260       0.00000000
Si      -1.36057338      -1.37547873      -1.37943146       0.00000000
Si       1.35081567      -1.39393530       1.38570846       0.00000000
Si      -1.22463333       1.53678231       1.47317490       0.00000000
Si      -2.52003042      -0.02176344       2.78548016       0.00000000
Si       2.70287005       2.70498708       0.01409753       0.00000000
Si      -2.71187775       2.69845479      -0.00830074       0.00000000
Si       2.69255685      -2.73468375      -0.03234543       0.00000000
Si       0.00004887       2.69558775      -2.74061502       0.00000000
Si       2.71388861      -0.01827738      -2.74229575       0.00000000
