10
Lattice="16.28999089631971 0.0 0.0 0.0 16.28999089631971 0.0 0.0 0.0 34.3005442915855" Properties=species:S:1:pos:R:3:initial_magmoms:R:1 pbc="T T T"
Si      -0.50314923       2.12499792       0.71465224       0.00000000
Si      -2.16988827      -0.71237799      -0.57714128       0.00000000
Si       0.72985716      -1.63331685       1.59363848       0.00000000
Si       1.46393343       0.61913403      -1.81940479       0.00000000
Si       2.12165847      -1.66066776      -1.97375732       0.00000000
Si       2.64929157      -2.17722366       0.30825916       0.00000000
Si      -1.58778630      -2.65101831      -1.72675897       0.00000000
Si      -0.96837534       3.20836437      -1.42968179       0.00000000
Si       0.08443107      -1.90099413      -3.15301069       0.00000000
Si      -2.15068236       1.87774830       2.42844559       0.00000000
