10
Lattice="16.28999089631971 0.0 0.0 0.0 16.28999089631971 0.0 0.0 0.0 34.3005442915855" Properties=species:S:1:pos:R:3:initial_magmoms:R:1 pbc="T T T"
Si      -1.35273789       1.35674523      -1.36145796       0.00000000
Si      -1.35022923      -1.35610992       1.37202254       0.00000000
Si       1.36169739      -1.35897696      -1.36029175       0.00000000
Si       1.35806472       1.36461330       1.38762929       0.00000000
Si       0.13701519      -2.51778240       2.85349817       0.00000000
Si      -2.71480995       2.71392311       0.00061741       0.00000000
Si      -2.71169856      -0.00144981      -2.71907427       0.00000000
Si      -2.71375110      -2.71829601      -0.00061741       0.00000000
Si       0.00317655       2.71414389      -2.71903997       0.00000000
Si       2.71782360       2.71601535      -0.00370446       0.00000000
