10
Lattice="16.28999089631971 0.0 0.0 0.0 16.28999089631971 0.0 0.0 0.0 34.3005442915855" Properties=species:S:1:pos:R:3:initial_magmoms:R:1 pbc="T T T"
Si       0.58210197      -1.93864032      -1.14961768       0.00000000
Si      -1.46489032      -0.68023782       1.68281994       0.00000000
Si       2.16988827       0.71237799       0.57714128       0.00000000
Si      -1.34463754       1.33592661      -1.48370517       0.00000000
Si      -2.69046847      -2.13967521       0.26781880       0.00000000
Si       1.66673904       2.83737591       1.29179352       0.00000000
Si       0.42110953       2.41469928      -2.62533083       0.00000000
Si       2.25431934      -1.18861614      -2.57586941       0.00000000
Si      -2.00563687       1.40206401       2.70562845       0.00000000
Si       2.89974543      -0.92093886       2.17077976       0.00000000
