10
Lattice="16.28999089631971 0.0 0.0 0.0 16.28999089631971 0.0 0.0 0.0 34.3005442915855" Properties=species:S:1:pos:R:3:initial_magmoms:R:1 pbc="T T T"
Si       0.09249462      -1.56993246       1.74761371       0.00000000
Si      -1.92634137       0.78086508       1.16731678       0.00000000
Si       1.77577290       1.60184361      -0.05793365       0.00000000
Si      -0.39767148      -1.72955817      -2.01821085       0.00000000
Si      -1.80172287      -0.67556259       3.04523832       0.00000000
Si      -1.73811042      -2.91747384       1.87044403       0.00000000
Si       2.69496873       1.96506989       2.12653203       0.00000000
Si      -3.95293140      -0.02490741       0.27505622       0.00000000
Si       0.86881086       3.35071358      -1.94803190       0.00000000
Si      -2.04722946       3.03341696       1.84739405       0.00000000
