10
Lattice="16.28999089631971 0.0 0.0 0.0 16.28999089631971 0.0 0.0 0.0 34.3005442915855" Properties=species:S:1:pos:R:3:initial_magmoms:R:1 pbc="T T T"
Si      -2.13980553       0.98732061      -0.13689355       0.00000000
Si       1.38926074       1.61647299       1.03604852       0.00000000
Si       1.59876806      -0.26896419      -1.73519690       0.00000000
Si      -0.41906025      -2.07612792       1.18306073       0.00000000
Si      -3.51132579      -0.35031645       1.24891782       0.00000000
Si       2.33022653      -2.52371196      -1.50311929       0.00000000
Si      -2.84338692       0.94258827      -2.33425625       0.00000000
Si       1.67146870      -2.79598302       2.04774364       0.00000000
Si      -1.91513385       3.34070826       0.08561421       0.00000000
Si      -2.13382710      -1.51725060       2.86485166       0.00000000
