10
Lattice="16.28999089631971 0.0 0.0 0.0 16.28999089631971 0.0 0.0 0.0 34.3005442915855" Properties=species:S:1:pos:R:3:initial_magmoms:R:1 pbc="T T T"
Si      -1.29042864       1.34597754       1.39733635       0.00000000
Si       1.33846785       1.35363384      -1.35271132       0.00000000
Si       1.24662483      -1.41755580       1.40148672       0.00000000
Si      -1.37096640      -1.36267479      -1.34688023       0.00000000
Si      -0.68344695      -2.11856337       2.65661294       0.00000000
Si      -2.40769458      -0.28867509       2.73835118       0.00000000
Si       2.69838963      -0.00293220      -2.70833819       0.00000000
Si       2.70330921       2.70350469       0.02366739       0.00000000
Si      -0.01682757       2.70936909      -2.70967591       0.00000000
Si      -0.01646919      -2.71927341      -2.70923000       0.00000000
