10
Lattice="16.28999089631971 0.0 0.0 0.0 16.28999089631971 0.0 0.0 0.0 34.3005442915855" Properties=species:S:1:pos:R:3:initial_magmoms:R:1 pbc="T T T"
Si      -2.09063321       1.15215912       0.33340148       0.00000000
Si       2.01158694       1.28392893      -0.50418398       0.00000000
Si       0.46522611      -1.08336645       2.14433403       0.00000000
Si      -0.78040340      -1.50604308      -1.77279032       0.00000000
Si       2.43230877      -2.58923034      -0.38972300       0.00000000
Si       0.96837534      -3.20836437       1.42968179       0.00000000
Si      -2.54615048      -2.58481575      -0.63116467       0.00000000
Si       1.42429986       3.50018343      -0.04181239       0.00000000
Si      -3.78262664      -0.56826036       0.18217029       0.00000000
Si      -2.02274201      -0.27631098      -3.31316003       0.00000000
