10
Lattice="16.28999089631971 0.0 0.0 0.0 16.28999089631971 0.0 0.0 0.0 34.3005442915855" Properties=species:S:1:pos:R:3:initial_magmoms:R:1 pbc="T T T"
Si      -0.89912655       0.98119557       1.98538521       0.00000000
Si       1.87431111      -1.37919285       0.59885354       0.00000000
Si      -1.60734570      -1.59575211      -0.87771712       0.00000000
Si       0.53084223       1.82980683      -1.53673384       0.00000000
Si       1.79170452       0.20487933      -2.80660930       0.00000000
Si       0.88593165       0.33798492       3.37222560       0.00000000
Si       3.48298119       0.37457226       0.78664912       0.00000000
Si       1.47321873      -1.87826958       2.90985400       0.00000000
Si      -3.80139272      -0.53548488      -0.05045613       0.00000000
Si      -1.03296682       3.32353467       1.66697308       0.00000000
