10
Lattice="16.28999089631971 0.0 0.0 0.0 16.28999089631971 0.0 0.0 0.0 34.3005442915855" Properties=species:S:1:pos:R:3:initial_magmoms:R:1 pbc="T T T"
Si      -1.78642004       1.22763069      -1.05100356       0.00000000
Si       1.26086229      -1.62492750      -1.26987546       0.00000000
Si      -0.53084223      -1.82980683       1.53673384       0.00000000
Si       1.50333894       1.94988042       0.26034128       0.00000000
Si       0.51057747       2.33813628       2.39634027       0.00000000
Si       2.44964133      -0.11119554      -2.69520107       0.00000000
Si      -0.57195819       2.34215991      -2.75351203       0.00000000
Si       3.74772627      -0.66797145      -0.08420788       0.00000000
Si      -1.56380905       1.49372784       3.20370693       0.00000000
Si      -1.42996878      -0.84861126       3.52211906       0.00000000
