10
Lattice="16.28999089631971 0.0 0.0 0.0 16.28999089631971 0.0 0.0 0.0 34.3005442915855" Properties=species:S:1:pos:R:3:initial_magmoms:R:1 pbc="T T T"
Si       1.78505820      -0.64321065       1.38684038       0.00000000
Si      -0.13384027       2.34233910      -0.31841213       0.00000000
Si      -2.12221952      -0.98137476       0.42930585       0.00000000
Si       0.89912655      -0.98119557      -1.98538521       0.00000000
Si      -0.96869625       3.17379699       1.73876416       0.00000000
Si       1.16523999      -0.56146743       3.59572807       0.00000000
Si       2.37234528      -2.85946515       0.92446879       0.00000000
Si      -2.90226617      -1.51668045      -2.03584134       0.00000000
Si       3.75865686       0.54133299       0.77934310       0.00000000
Si      -1.72987487      -2.99123496       1.76205425       0.00000000
