10
Lattice="16.28999089631971 0.0 0.0 0.0 16.28999089631971 0.0 0.0 0.0 34.3005442915855" Properties=species:S:1:pos:R:3:initial_magmoms:R:1 pbc="T T T"
Si       0.61981821      -0.08174322      -2.20888769       0.00000000
Si      -2.21302256       0.37838412       0.63236519       0.00000000
Si       1.12407516       1.98376362       0.55100425       0.00000000
Si       0.76939299      -1.56059829       1.60169911       0.00000000
Si      -1.71899085       0.80475858       2.89688839       0.00000000
Si       0.17143596       2.32007067       2.67681597       0.00000000
Si      -0.98753238      -1.44998919       3.12896600       0.00000000
Si       3.31247376       1.22464962       0.91043986       0.00000000
Si       2.99537262      -0.85502952       1.93139613       0.00000000
Si       1.20710529      -2.29799772      -2.67125928       0.00000000
