10
Lattice="16.28999089631971 0.0 0.0 0.0 16.28999089631971 0.0 0.0 0.0 34.56954931742767" Properties=species:S:1:pos:R:3:initial_magmoms:R:1 pbc="T T T"
Si      -1.35577418      -1.35688677      -1.35761610       0.00000000
Si      -1.35727178       1.35743104       1.35758153       0.00000000
Si       1.35798979      -1.35736724       1.35740868       0.00000000
Si       1.35741964       1.35796861      -1.35744325       0.00000000
Si      -0.00106048       2.71417627       2.71495564       0.00000000
Si       2.71510969       0.00036978       2.71419511       0.00000000
Si      -2.71424047      -2.71525534       0.00003457       0.00000000
Si      -2.71474546       2.71497448       0.00020742       0.00000000
Si       0.00064508      -2.71466890       2.71533591       0.00000000
Si       2.71517485       2.71489303      -0.00006914       0.00000000
