10
Lattice="16.28999089631971 0.0 0.0 0.0 16.28999089631971 0.0 0.0 0.0 34.56954931742767" Properties=species:S:1:pos:R:3:initial_magmoms:R:1 pbc="T T T"
Si       0.46788138       2.30475807       0.19853303       0.00000000
Si      -2.24125965       0.10026495       0.79983611       0.00000000
Si       0.41705658      -1.09999854      -2.07313703       0.00000000
Si       1.76376717      -0.71265492       1.48289622       0.00000000
Si       0.22169061       2.29664565       2.55538251       0.00000000
Si       2.70700704       2.37218238      -0.38738659       0.00000000
Si      -1.97916984       1.55831769       2.70638239       0.00000000
Si       3.65852223       0.34951824       0.40581217       0.00000000
Si       2.42887158      -2.32223398      -1.89482720       0.00000000
Si       1.67500296      -3.10434362       1.57682173       0.00000000
