10
Lattice="16.28999089631971 0.0 0.0 0.0 16.28999089631971 0.0 0.0 0.0 34.56954931742767" Properties=species:S:1:pos:R:3:initial_magmoms:R:1 pbc="T T T"
Si       1.35767376      -1.35586557      -1.35682100       0.00000000
Si       1.35718506       1.35685926       1.35775438       0.00000000
Si      -1.35819504      -1.35796698       1.35758153       0.00000000
Si      -1.35840681       1.35679410      -1.35879146       0.00000000
Si       2.69532711       0.00892692      -2.72113668       0.00000000
Si       2.71437012      -0.00019548       2.71554333       0.00000000
Si       2.71425609      -2.71575477       0.00117537       0.00000000
Si       2.71629234       2.71399545       0.00107166       0.00000000
Si      -0.00042354       2.71466334       2.71578531       0.00000000
Si      -2.71595025       2.71456560       0.00114080       0.00000000
