10
Lattice="16.28999089631971 0.0 0.0 0.0 16.28999089631971 0.0 0.0 0.0 34.56954931742767" Properties=species:S:1:pos:R:3:initial_magmoms:R:1 pbc="T T T"
Si       1.35664749       1.35619137      -1.37853069       0.00000000
Si      -1.35731538      -1.35568638      -1.37946407       0.00000000
Si       1.12304889      -1.50864948       1.47014005       0.00000000
Si      -1.35803214       1.35786924       1.51003333       0.00000000
Si       2.28483540       0.11960118       2.74945607       0.00000000
Si      -0.82593558      -2.10694860       2.83480834       0.00000000
Si      -2.71249677       2.69773803      -0.01230677       0.00000000
Si       2.70062136      -2.72196126      -0.00736332       0.00000000
Si       2.71381626       2.71443528      -0.00093338       0.00000000
Si       0.00087966       2.71239903      -2.74036428       0.00000000
