10
Lattice="16.28999089631971 0.0 0.0 0.0 16.28999089631971 0.0 0.0 0.0 34.56954931742767" Properties=species:S:1:pos:R:3:initial_magmoms:R:1 pbc="T T T"
Si      -1.45529144       1.23948981      -1.44877605       0.00000000
Si       1.27262611      -1.48819087      -1.44079048       0.00000000
Si       0.77191550       1.70092035       1.56980411       0.00000000
Si      -1.63207052      -1.15114914       1.41901165       0.00000000
Si       2.53126971       2.51662581       0.02820877       0.00000000
Si      -0.09435541       2.59268382      -2.82716846       0.00000000
Si       2.62474173      -0.12305466      -2.82772158       0.00000000
Si      -2.78665685       2.69407278      -0.00297298       0.00000000
Si       2.56427325      -2.92668488       0.04089580       0.00000000
Si      -2.74858712      -2.75560109       0.03868335       0.00000000
