10
Lattice="16.28999089631971 0.0 0.0 0.0 16.28999089631971 0.0 0.0 0.0 34.56954931742767" Properties=species:S:1:pos:R:3:initial_magmoms:R:1 pbc="T T T"
Si       1.00651023       1.95004332      -0.84619390       0.00000000
Si      -2.35258551       0.27847755      -0.16786983       0.00000000
Si       0.39457638      -0.36693225       2.33396443       0.00000000
Si       0.80277120      -1.29000510      -1.89275302       0.00000000
Si      -0.79956207       3.38170626      -0.40066130       0.00000000
Si      -2.38638726       2.11797693      -1.68422938       0.00000000
Si      -0.91807182      -3.10189293      -1.68346885       0.00000000
Si       0.81239859       1.83402594       3.15129274       0.00000000
Si      -3.14680446       0.74282400       2.05481516       0.00000000
Si      -1.80680535      -0.86426595       3.28175829       0.00000000
