10
Lattice="16.28999089631971 0.0 0.0 0.0 16.28999089631971 0.0 0.0 0.0 34.56954931742767" Properties=species:S:1:pos:R:3:initial_magmoms:R:1 pbc="T T T"
Si      -0.16057053       0.14413392       2.35069610       0.00000000
Si      -1.14202674       2.08477791      -0.02485552       0.00000000
Si      -0.89489115      -2.01549654      -0.95906354       0.00000000
Si       2.32893243       0.08684199      -0.60330811       0.00000000
Si       0.83072484       2.34540162       2.62628470       0.00000000
Si       0.33293502      -3.72619089       0.13976477       0.00000000
Si      -2.07647001       2.37135159      -2.11216607       0.00000000
Si       3.37822020      -1.69492563       0.54122117       0.00000000
Si       0.28416276       3.73052403       0.77885238       0.00000000
Si       0.79661358      -1.72027287       3.39393654       0.00000000
