10
Lattice="16.28999089631971 0.0 0.0 0.0 16.28999089631971 0.0 0.0 0.0 34.56954931742767" Properties=species:S:1:pos:R:3:initial_magmoms:R:1 pbc="T T T"
Si      -0.36773046       0.75543246       2.24260470       0.00000000
Si       2.47259394       0.17314641      -0.29404875       0.00000000
Si      -1.39777974       1.95595659      -0.80215227       0.00000000
Si      -0.34880148      -2.25036576      -1.19244270       0.00000000
Si       2.17368873       1.72804320      -2.17055408       0.00000000
Si       0.28702980       3.19080375      -1.96213415       0.00000000
Si      -1.18117161      -1.08284517       3.46622984       0.00000000
Si       1.89767097      -3.17246121      -1.15071723       0.00000000
Si      -2.10549879       2.68811064       1.85725008       0.00000000
Si      -3.20631183       0.94006332      -2.13259669       0.00000000
