10
Lattice="16.28999089631971 0.0 0.0 0.0 16.28999089631971 0.0 0.0 0.0 34.56954931742767" Properties=species:S:1:pos:R:3:initial_magmoms:R:1 pbc="T T T"
Si       1.34524449      -1.27526265      -1.41919142       0.00000000
Si       1.36054080       1.34110683       1.36558439       0.00000000
Si      -1.35374787      -1.37376828       1.35663087       0.00000000
Si      -1.33514469       1.34988714      -1.43933510       0.00000000
Si      -0.46714833      -2.17748430      -2.66661771       0.00000000
Si      -2.20491666      -0.24480612      -3.05197233       0.00000000
Si      -2.71091664       2.68825447      -0.00723195       0.00000000
Si       2.70133812       2.69842337       0.01910314       0.00000000
Si       0.00550602       2.69766699       2.71929412       0.00000000
Si      -2.70985779      -0.01412343       2.71863730       0.00000000
