10
Lattice="16.28999089631971 0.0 0.0 0.0 16.28999089631971 0.0 0.0 0.0 34.56954931742767" Properties=species:S:1:pos:R:3:initial_magmoms:R:1 pbc="T T T"
Si      -1.34524449       1.27526265       1.41919142       0.00000000
Si       1.35940050       1.29257892      -1.41195051       0.00000000
Si      -1.81239282      -0.90222165      -1.24742629       0.00000000
Si       1.36464588      -1.45917675       1.39378624       0.00000000
Si       2.68086159      -0.30151161      -2.49518795       0.00000000
Si      -2.68038918       2.62514979      -0.02014369       0.00000000
Si      -2.62583397      -2.74049928      -0.02380115       0.00000000
Si       0.01529631       2.61636948       2.78477580       0.00000000
Si       2.72523555       2.72394864       0.03913621       0.00000000
Si      -2.69899236      -0.09850563       2.77582228       0.00000000
