10
Lattice="16.28999089631971 0.0 0.0 0.0 16.28999089631971 0.0 0.0 0.0 34.56954931742767" Properties=species:S:1:pos:R:3:initial_magmoms:R:1 pbc="T T T"
Si      -1.35780408      -1.35692442      -1.35706299       0.00000000
Si       1.35734796       1.35795662      -1.35758153       0.00000000
Si       1.35658233      -1.36018242       1.35661358       0.00000000
Si      -1.36016613       1.36028795       1.36000140       0.00000000
Si       2.71427238      -2.71290402       0.00006914       0.00000000
Si      -0.00096111      -2.71415835      -2.71474823       0.00000000
Si       2.71417464       0.00065160      -2.71502478       0.00000000
Si      -2.71546155       0.00043983      -2.71467909       0.00000000
Si      -0.00050499       2.71556648      -2.71474823       0.00000000
Si      -2.71557558      -2.71538010      -0.00003457       0.00000000
