10
Lattice="16.28999089631971 0.0 0.0 0.0 16.28999089631971 0.0 0.0 0.0 34.56954931742767" Properties=species:S:1:pos:R:3:initial_magmoms:R:1 pbc="T T T"
Si       1.63033578      -0.98982927      -1.41894251       0.00000000
Si      -1.12731687      -1.79173710       1.10529282       0.00000000
Si      -1.08463707       2.01806126       0.71372331       0.00000000
Si      -1.34615673       1.61182938      -1.64817332       0.00000000
Si       2.58593976      -0.25847343       0.89552468       0.00000000
Si       0.69704910      -3.12023547       1.90868959       0.00000000
Si      -2.07765918      -0.84898593       3.08360552       0.00000000
Si       0.05952366      -2.31831135      -3.04257144       0.00000000
Si      -2.48803686      -2.97132858      -0.46063950       0.00000000
Si       0.63620595       3.82994909       0.50443915       0.00000000
