10
Lattice="16.28999089631971 0.0 0.0 0.0 16.28999089631971 0.0 0.0 0.0 34.56954931742767" Properties=species:S:1:pos:R:3:initial_magmoms:R:1 pbc="T T T"
Si       1.27117386      -1.40932935      -1.39768223       0.00000000
Si      -1.46095236       1.30494303      -1.38672368       0.00000000
Si      -1.01213028      -1.85758128       1.16177949       0.00000000
Si       1.57081212       1.32848208       1.62362893       0.00000000
Si      -2.54756052      -0.65301723       2.58193194       0.00000000
Si       2.64979656      -2.67990048       0.10253334       0.00000000
Si       2.65629627       2.69262804       0.02537406       0.00000000
Si       2.61521289      -0.05843223      -2.76701741       0.00000000
Si      -0.05952366       2.31831135       3.04257144       0.00000000
Si      -0.10153557       2.66203814      -2.76362960       0.00000000
