10
Lattice="16.28999089631971 0.0 0.0 0.0 16.28999089631971 0.0 0.0 0.0 34.56954931742767" Properties=species:S:1:pos:R:3:initial_magmoms:R:1 pbc="T T T"
Si       1.08548415       1.36414596      -1.59825487       0.00000000
Si      -1.63033578       0.98982927       1.41894251       0.00000000
Si       0.95560398       0.73135584       2.31446719       0.00000000
Si      -1.57081212      -1.32848208      -1.62362893       0.00000000
Si       1.99842462      -2.27440980      -0.12451959       0.00000000
Si       2.23990758       3.02939333      -0.30193061       0.00000000
Si      -2.75765265      -0.80190783       2.52423533       0.00000000
Si       2.41673553      -0.02946861      -3.01291075       0.00000000
Si      -2.97649251       2.60165865      -0.22923081       0.00000000
Si      -0.31633551       2.69969350      -3.00900439       0.00000000
