10
Lattice="16.28999089631971 0.0 0.0 0.0 16.28999089631971 0.0 0.0 0.0 34.56954931742767" Properties=species:S:1:pos:R:3:initial_magmoms:R:1 pbc="T T T"
Si      -1.01634939      -1.43567028       1.60271434       0.00000000
Si      -0.28334826       1.85807554       1.47269819       0.00000000
Si       2.47590081      -0.28854477       0.00186676       0.00000000
Si      -1.92759570       0.17713746      -1.60357858       0.00000000
Si      -0.57863709       0.26016759       3.25991032       0.00000000
Si       0.84711258      -2.09411208      -2.77849451       0.00000000
Si       2.78107767      -0.96997176      -2.21144988       0.00000000
Si      -2.22633801       2.96465361       0.53385785       0.00000000
Si      -3.15690426      -1.97135064       0.65101412       0.00000000
Si      -0.97725339      -0.76561371      -3.58189128       0.00000000
