10
Lattice="16.28999089631971 0.0 0.0 0.0 16.28999089631971 0.0 0.0 0.0 34.56954931742767" Properties=species:S:1:pos:R:3:initial_magmoms:R:1 pbc="T T T"
Si       0.30517686      -0.68142699      -2.21331663       0.00000000
Si       0.90378549      -1.89985383       1.15244571       0.00000000
Si       1.76713920       1.70164446       0.05254574       0.00000000
Si      -2.47590081       0.28854477      -0.00186676       0.00000000
Si       1.20568806       2.16043911       2.25213826       0.00000000
Si      -1.62878823      -1.80556731      -2.78036127       0.00000000
Si       3.26523276      -1.58078160       0.86423922       0.00000000
Si      -2.75924907       2.14662031       1.47083144       0.00000000
Si       0.26010243       1.05619473      -3.79352618       0.00000000
Si       3.90836196       0.58932333       0.06820576       0.00000000
