10
Lattice="16.28999089631971 0.0 0.0 0.0 16.28999089631971 0.0 0.0 0.0 34.56954931742767" Properties=species:S:1:pos:R:3:initial_magmoms:R:1 pbc="T T T"
Si      -1.70334756      -0.97852564       1.32055818       0.00000000
Si      -0.91113228       0.04597038      -2.20029158       0.00000000
Si       1.06921044       1.75840776       1.25297467       0.00000000
Si       1.80895563      -1.65669463       0.09983411       0.00000000
Si       2.07220203      -1.84019170      -2.19161462       0.00000000
Si      -0.37224279      -2.32436097       2.71116402       0.00000000
Si       2.37886128       0.39886065       2.68200459       0.00000000
Si      -1.33480260      -3.15524987      -1.22072829       0.00000000
Si       0.68761719       1.60050879      -3.28563776       0.00000000
Si      -3.12816870      -2.20491731      -0.08200670       0.00000000
