10
Lattice="16.28999089631971 0.0 0.0 0.0 16.28999089631971 0.0 0.0 0.0 34.56954931742767" Properties=species:S:1:pos:R:3:initial_magmoms:R:1 pbc="T T T"
Si       1.33639902       1.34957763       1.37149232       0.00000000
Si      -1.30965084       1.35954711      -1.42902991       0.00000000
Si      -1.37487600      -1.36557115       1.36845020       0.00000000
Si       1.43060409      -1.23707726      -1.48671961       0.00000000
Si      -0.56990565      -2.05555528      -2.58217047       0.00000000
Si      -2.37886128      -0.39886065      -2.68200459       0.00000000
Si       2.71002069       2.71197549      -0.00559336       0.00000000
Si       2.69772174      -0.00671148       2.72921213       0.00000000
Si       2.70168021      -2.72537306      -0.02905227       0.00000000
Si      -2.73681774       2.69847108      -0.01667982       0.00000000
