10
Lattice="16.28999089631971 0.0 0.0 0.0 16.28999089631971 0.0 0.0 0.0 34.56954931742767" Properties=species:S:1:pos:R:3:initial_magmoms:R:1 pbc="T T T"
Si       0.05875803       0.29732508       2.28083100       0.00000000
Si       2.12242410      -0.71285040      -0.77425463       0.00000000
Si      -1.99513404      -1.40105403       0.02450982       0.00000000
Si       0.41622579       2.15259318      -1.11369322       0.00000000
Si       2.28674133       1.07349471      -2.28041616       0.00000000
Si      -2.03657580       1.37637468       2.49011517       0.00000000
Si      -1.95885621      -2.24993407      -2.26631178       0.00000000
Si       2.19502863       1.14163578       2.94515440       0.00000000
Si       1.93471443      -2.75258483      -1.88027341       0.00000000
Si      -3.54074553      -0.29053215       1.59714864       0.00000000
