10
Lattice="16.28999089631971 0.0 0.0 0.0 16.28999089631971 0.0 0.0 0.0 34.56954931742767" Properties=species:S:1:pos:R:3:initial_magmoms:R:1 pbc="T T T"
Si      -0.49787127       1.11669579       1.98173509       0.00000000
Si       1.76182866      -1.43533959       0.54702885       0.00000000
Si      -1.72752192      -1.55505643      -0.31890427       0.00000000
Si       0.65754585       1.84261077      -1.38226420       0.00000000
Si      -1.16607078      -2.01385109      -2.51849678       0.00000000
Si      -1.43778798       2.92166037      -1.17298003       0.00000000
Si       1.75195692       1.50387651       2.67364501       0.00000000
Si       3.22463808      -0.09190818       1.69919801       0.00000000
Si      -1.44938646       3.13935993       1.18853634       0.00000000
Si      -1.35464382      -3.27584474       1.30133684       0.00000000
