10
Lattice="16.28999089631971 0.0 0.0 0.0 16.28999089631971 0.0 0.0 0.0 34.56954931742767" Properties=species:S:1:pos:R:3:initial_magmoms:R:1 pbc="T T T"
Si       0.49787127      -1.11669579      -1.98173509       0.00000000
Si      -0.95151519       2.02266414      -0.79319875       0.00000000
Si       2.24982819       0.38718072       0.69190992       0.00000000
Si      -1.89475506      -1.06217316       1.07708405       0.00000000
Si      -1.95103701       0.34091712       3.03662548       0.00000000
Si       1.15541712       0.72591498      -3.36399929       0.00000000
Si      -3.65852223      -0.34951824      -0.40581217       0.00000000
Si       2.25969993      -2.55203538      -1.43470624       0.00000000
Si      -1.22965065      -2.67175222      -2.30063936       0.00000000
Si      -3.19064085       1.95523983      -0.20727913       0.00000000
