10
Lattice="16.28999089631971 0.0 0.0 0.0 16.28999089631971 0.0 0.0 0.0 34.56954931742767" Properties=species:S:1:pos:R:3:initial_magmoms:R:1 pbc="T T T"
Si      -1.35576783       1.35620766      -1.36183359       0.00000000
Si       1.36003581      -1.35747828      -1.36224842       0.00000000
Si      -1.35664749      -1.35619137       1.37853069       0.00000000
Si       1.35716877       1.35824391       1.37759731       0.00000000
Si      -2.71223613       2.71314837      -0.00262729       0.00000000
Si      -2.71396287      -2.71187775      -0.00093338       0.00000000
Si       2.71450044      -2.71531494      -0.00172848       0.00000000
Si       2.71440270       2.71599912       0.00079510       0.00000000
Si      -2.71327869      -0.00148239      -2.71889657       0.00000000
Si       0.00228060       2.71393029      -2.71855088       0.00000000
