10
Lattice="16.28999089631971 0.0 0.0 0.0 16.28999089631971 0.0 0.0 0.0 34.56954931742767" Properties=species:S:1:pos:R:3:initial_magmoms:R:1 pbc="T T T"
Si      -1.96564914      -0.70089354      -1.11856753       0.00000000
Si       0.14514390      -0.52468461       2.33776708       0.00000000
Si       0.03080439       2.39998941       0.11100288       0.00000000
Si       1.86136056      -0.54517743      -1.50719862       0.00000000
Si      -2.15976078      -0.81691092       2.87891911       0.00000000
Si       1.11285135       1.38983022       3.28417816       0.00000000
Si       3.46846680      -1.67218479      -0.18626084       0.00000000
Si      -3.77172144       0.73076940      -0.67303493       0.00000000
Si      -0.18116109       3.12645825       2.36117068       0.00000000
Si      -1.28919060       3.28074084      -1.83681946       0.00000000
