10
Lattice="16.28999089631971 0.0 0.0 0.0 16.28999089631971 0.0 0.0 0.0 34.56954931742767" Properties=species:S:1:pos:R:3:initial_magmoms:R:1 pbc="T T T"
Si      -1.35718506      -1.35685926      -1.35775438       0.00000000
Si       1.35718506      -1.35705474       1.35778895       0.00000000
Si       1.35910728       1.35713619      -1.35668272       0.00000000
Si      -1.35760860       1.35780408       1.35803093       0.00000000
Si       2.71236645       0.00239463      -2.71215551       0.00000000
Si       0.00048870      -2.71272483      -2.71457538       0.00000000
Si       0.00014661      -2.71360449       2.71433339       0.00000000
Si       2.71412577      -2.71458189       0.00031113       0.00000000
Si       2.71469592       2.71484253       0.00010371       0.00000000
Si      -2.71538010      -2.71482624      -0.00017285       0.00000000
