10
Lattice="16.28999089631971 0.0 0.0 0.0 16.28999089631971 0.0 0.0 0.0 34.56954931742767" Properties=species:S:1:pos:R:3:initial_magmoms:R:1 pbc="T T T"
Si      -1.35804843      -1.35772263       1.35671729       0.00000000
Si       1.35692442       1.35886293       1.35706299       0.00000000
Si       1.35760860      -1.35780408      -1.35803093       0.00000000
Si      -1.35830907       1.35760860      -1.35775438       0.00000000
Si      -0.00076563       2.71158453       2.71360743       0.00000000
Si       2.71456560       2.71489140      -0.00024199       0.00000000
Si       2.71479366      -2.71485882      -0.00024199       0.00000000
Si      -2.71515204       2.71484253      -0.00006914       0.00000000
Si      -2.71552671      -0.00009774      -2.71464452       0.00000000
Si      -0.00226431       2.71568961      -2.71454081       0.00000000
