10
Lattice="16.28999089631971 0.0 0.0 0.0 16.28999089631971 0.0 0.0 0.0 34.56954931742767" Properties=species:S:1:pos:R:3:initial_magmoms:R:1 pbc="T T T"
Si       1.35775521      -1.35751086       1.36325094       0.00000000
Si      -1.36122498       1.35884664       1.36342379       0.00000000
Si       1.35705474       1.37559276      -1.36677358       0.00000000
Si      -1.36930482      -1.36041048      -1.38134465       0.00000000
Si       2.73494439      -0.05610276      -2.66626786       0.00000000
Si       2.71101438      -2.71225242       0.00777815       0.00000000
Si       2.71383255       2.71440270       0.00262729       0.00000000
Si      -2.71694394      -2.71471221       0.00338782       0.00000000
Si       2.71334385       0.00019548       2.72003737       0.00000000
Si      -2.71865439       2.71513575       0.00964491       0.00000000
