10
Lattice="16.28999089631971 0.0 0.0 0.0 16.28999089631971 0.0 0.0 0.0 34.56954931742767" Properties=species:S:1:pos:R:3:initial_magmoms:R:1 pbc="T T T"
Si       1.36717083       1.34947989       1.36665604       0.00000000
Si       1.31787729      -1.38293955      -1.38270324       0.00000000
Si      -1.34786881      -1.36721970       1.36976730       0.00000000
Si      -1.29192732       1.37673306      -1.51946045       0.00000000
Si      -2.71139811       2.70524772      -0.02654251       0.00000000
Si      -2.70155005      -2.72743470      -0.01545951       0.00000000
Si      -2.70567845      -0.00832419       2.73077122       0.00000000
Si       0.00974142       2.70694188       2.73042552       0.00000000
Si       2.74631481       2.69977428      -0.02155758       0.00000000
Si       2.73153978      -2.71937115       0.00260309       0.00000000
