10
Lattice="16.28999089631971 0.0 0.0 0.0 16.28999089631971 0.0 0.0 0.0 34.56954931742767" Properties=species:S:1:pos:R:3:initial_magmoms:R:1 pbc="T T T"
Si       0.12641040       0.03231936       2.37589731       0.00000000
Si      -0.90378549       1.89985383      -1.15244571       0.00000000
Si       2.36144727       0.31907223      -0.28820649       0.00000000
Si      -0.60518979      -2.17811961      -0.81076009       0.00000000
Si      -0.59860863       1.21842684      -3.36576234       0.00000000
Si       0.67478067       2.33950464       2.71993366       0.00000000
Si       0.86335371       3.60149829      -1.09989997       0.00000000
Si       1.48434480      -1.84303431       3.13857114       0.00000000
Si       0.68882265      -3.91474764       0.11224739       0.00000000
Si      -2.93097825      -2.58075954      -0.78179079       0.00000000
