10
Lattice="16.28999089631971 0.0 0.0 0.0 16.28999089631971 0.0 0.0 0.0 34.56954931742767" Properties=species:S:1:pos:R:3:initial_magmoms:R:1 pbc="T T T"
Si       1.35633798       1.35709800       1.35657901       0.00000000
Si      -1.35767376      -1.35707894       1.35720126       0.00000000
Si      -1.35770634       1.35816011      -1.35775438       0.00000000
Si       1.35834165      -1.35764909      -1.35768524       0.00000000
Si      -2.71485882       2.71472778      -0.00017285       0.00000000
Si      -2.71492398      -2.71496447      -0.00006914       0.00000000
Si      -2.71458189       0.00023644      -2.71537048       0.00000000
Si       0.00086337      -2.71458980      -2.71537048       0.00000000
Si       2.71531034       2.71503729      -0.00013828       0.00000000
Si       2.71519496      -2.71520882      -0.00027656       0.00000000
