10
Lattice="16.28999089631971 0.0 0.0 0.0 16.28999089631971 0.0 0.0 0.0 34.56954931742767" Properties=species:S:1:pos:R:3:initial_magmoms:R:1 pbc="T T T"
Si      -0.18770967      -2.03973443      -1.10601878       0.00000000
Si       2.08179684      -0.08596233       1.05485582       0.00000000
Si       0.16431723       1.78634511      -1.50616154       0.00000000
Si      -2.12242410       0.71285040       0.77425463       0.00000000
Si      -0.46599174       0.08084727      -3.24435402       0.00000000
Si      -1.70619831       2.86544358      -0.33943859       0.00000000
Si       2.43260199       2.51558325      -1.02090850       0.00000000
Si       3.45945584      -1.10428281      -0.62809449       0.00000000
Si       1.90242765      -2.22385053      -2.28677697       0.00000000
Si       1.89112239      -1.61802217       2.77386219       0.00000000
