10
Lattice="16.28999089631971 0.0 0.0 0.0 16.28999089631971 0.0 0.0 0.0 34.56954931742767" Properties=species:S:1:pos:R:3:initial_magmoms:R:1 pbc="T T T"
Si       0.25580187      -1.71664183      -1.56392729       0.00000000
Si      -1.13189436      -1.02296313       1.79875836       0.00000000
Si       1.92179224       0.69900390       1.27447629       0.00000000
Si      -1.56271599       1.75586652      -0.61838044       0.00000000
Si       0.44647632      -0.18458199      -3.28293366       0.00000000
Si      -1.65825684       2.40367095       1.60748494       0.00000000
Si       0.68126409       2.56839543       2.04689873       0.00000000
Si       0.54975492      -2.56231274       2.39871323       0.00000000
Si      -2.59470378      -2.36639454       0.64658921       0.00000000
Si      -1.45639116      -3.34366001      -1.12990635       0.00000000
