10
Lattice="16.28999089631971 0.0 0.0 0.0 16.28999089631971 0.0 0.0 0.0 34.56954931742767" Properties=species:S:1:pos:R:3:initial_magmoms:R:1 pbc="T T T"
Si      -1.33639902      -1.34957763      -1.37149232       0.00000000
Si      -1.35392706       1.35747828       1.35785809       0.00000000
Si       1.36132272      -1.35628911       1.35771981       0.00000000
Si       1.37362167       1.36239786      -1.37708568       0.00000000
Si      -2.71120986       0.00055386       2.71495564       0.00000000
Si      -2.71127502      -2.71514878      -0.00304212       0.00000000
Si      -2.71050939       2.71736748      -0.00013828       0.00000000
Si       0.00317655      -2.71407853       2.71454081       0.00000000
Si       0.00312768       2.71551042       2.71474823       0.00000000
Si       2.71873584      -2.71335851      -0.00525457       0.00000000
