10
Lattice="16.28999089631971 0.0 0.0 0.0 16.28999089631971 0.0 0.0 0.0 34.56954931742767" Properties=species:S:1:pos:R:3:initial_magmoms:R:1 pbc="T T T"
Si      -1.21184568      -1.40040243      -1.48989798       0.00000000
Si      -1.39779603       1.28466198       1.49457036       0.00000000
Si       1.30796370      -1.43922150       1.48321426       0.00000000
Si       1.43389697       1.32471909      -1.52184026       0.00000000
Si      -2.51704935       0.26161740      -2.68939287       0.00000000
Si       2.36138930      -0.58121091      -2.78636051       0.00000000
Si      -2.67721263      -2.66439077       0.01344411       0.00000000
Si       2.71758644       2.66494626      -0.02078668       0.00000000
Si       0.54258732      -2.34316989      -3.00933423       0.00000000
Si      -2.70189198       2.77042401       0.12611670       0.00000000
