10
Lattice="16.28999089631971 0.0 0.0 0.0 16.28999089631971 0.0 0.0 0.0 34.56954931742767" Properties=species:S:1:pos:R:3:initial_magmoms:R:1 pbc="T T T"
Si      -1.44238176       1.23400008       1.38108538       0.00000000
Si      -1.41934770      -1.32760242      -1.38204784       0.00000000
Si       1.30409595      -1.48576203       1.36845366       0.00000000
Si       0.64508400       1.85059287      -1.62510647       0.00000000
Si       2.50999578       2.61381195      -0.13811234       0.00000000
Si      -0.06815736       2.58432705       2.74782093       0.00000000
Si       0.18484263      -2.50880661      -2.81550957       0.00000000
Si      -2.94150159       2.41085484      -0.11747431       0.00000000
Si       2.64950334      -0.13378977       2.74374172       0.00000000
Si       2.70189198      -2.77042401      -0.12611670       0.00000000
