10
Lattice="16.28999089631971 0.0 0.0 0.0 16.28999089631971 0.0 0.0 0.0 34.56954931742767" Properties=species:S:1:pos:R:3:initial_magmoms:R:1 pbc="T T T"
Si       1.35834165       1.35663120       1.35733954       0.00000000
Si      -1.35788553       1.35742941      -1.35730497       0.00000000
Si       1.35770634      -1.35773892      -1.35727040       0.00000000
Si      -1.35708732      -1.35889551       1.35699385       0.00000000
Si       2.71423980      -0.00045612      -2.71426425       0.00000000
Si       0.00030951      -2.71437012      -2.71433339       0.00000000
Si      -0.00096111       2.71461447      -2.71450624       0.00000000
Si      -2.71494027      -0.00060273      -2.71419511       0.00000000
Si       2.71471459       2.71464705       0.00003457       0.00000000
Si       2.71339699       0.00043983       2.71616558       0.00000000
