10
Lattice="16.28999089631971 0.0 0.0 0.0 16.28999089631971 0.0 0.0 0.0 34.56954931742767" Properties=species:S:1:pos:R:3:initial_magmoms:R:1 pbc="T T T"
Si      -2.16942075      -0.60209469      -0.51394578       0.00000000
Si      -0.07341903       0.93291201       2.21003252       0.00000000
Si       1.62686601      -1.45435491      -1.29777618       0.00000000
Si      -1.91892942       1.69705962      -1.29884783       0.00000000
Si       3.01587100      -0.67342860       0.91879000       0.00000000
Si       2.29553793       1.28464569       2.05668192       0.00000000
Si      -0.17031195      -3.28634460       1.52472539       0.00000000
Si      -0.18867078      -2.43227619      -2.77510669       0.00000000
Si       2.77442876       2.52250650      -0.09185134       0.00000000
Si       2.49168582       0.17037711      -2.82378064       0.00000000
