10
Lattice="16.28999089631971 0.0 0.0 0.0 16.28999089631971 0.0 0.0 0.0 34.56954931742767" Properties=species:S:1:pos:R:3:initial_magmoms:R:1 pbc="T T T"
Si       0.25557381      -0.34231806       2.30482228       0.00000000
Si       1.24052815      -1.86939153      -0.77242244       0.00000000
Si      -2.33952093      -0.16472448      -0.43941379       0.00000000
Si       0.49792014       2.22812991      -0.74964110       0.00000000
Si      -0.68126409      -2.56839543      -2.04689873       0.00000000
Si      -2.24398008      -0.81252891      -2.66527917       0.00000000
Si      -0.43106598       3.43012014       1.13533377       0.00000000
Si       1.96839468       1.12107780       2.86156518       0.00000000
Si      -1.79546751       0.21895389       3.25206303       0.00000000
Si      -2.31045957       2.24735211       2.03991568       0.00000000
