10
Lattice="16.28999089631971 0.0 0.0 0.0 16.28999089631971 0.0 0.0 0.0 34.56954931742767" Properties=species:S:1:pos:R:3:initial_magmoms:R:1 pbc="T T T"
Si       2.05104132      -0.56127195      -0.94724075       0.00000000
Si      -1.57921776      -1.74935052      -0.27379098       0.00000000
Si       0.02334357       0.29299194       2.38706328       0.00000000
Si      -0.51499206       2.02839822      -1.21214735       0.00000000
Si      -1.49037210      -2.21452776      -2.52575639       0.00000000
Si      -0.35179884       2.65385277       2.56533855       0.00000000
Si      -1.40299254       3.40330680       0.51035054       0.00000000
Si       1.79546751      -0.21895389      -3.25206303       0.00000000
Si      -0.54405342      -0.38367837      -3.69147682       0.00000000
Si       2.64408270      -2.67745698      -0.11846991       0.00000000
