10
Lattice="16.28999089631971 0.0 0.0 0.0 16.28999089631971 0.0 0.0 0.0 34.56954931742767" Properties=species:S:1:pos:R:3:initial_magmoms:R:1 pbc="T T T"
Si      -1.21508739      -1.63071045      -1.27834808       0.00000000
Si       1.30520367      -1.66201983       1.19949489       0.00000000
Si      -1.60419033       1.18120419       1.43346173       0.00000000
Si       1.52624268       1.65910392      -1.56627802       0.00000000
Si       2.51704935      -0.26161740       2.68939287       0.00000000
Si      -3.28201146      -0.48728277      -1.77808576       0.00000000
Si      -0.18484263       2.50880661       2.81550957       0.00000000
Si       0.16197147      -2.40790635      -3.05612272       0.00000000
Si      -0.16016328      -2.92600817       2.70283697       0.00000000
Si      -2.90041821      -0.32938380       2.76052667       0.00000000
