10
Lattice="16.28999089631971 0.0 0.0 0.0 16.28999089631971 0.0 0.0 0.0 34.56954931742767" Properties=species:S:1:pos:R:3:initial_magmoms:R:1 pbc="T T T"
Si      -1.34825814      -1.35058761      -1.37099452       0.00000000
Si       1.36896273       1.36361961      -1.36895492       0.00000000
Si      -1.44093195       1.20976056       1.45603566       0.00000000
Si       1.35291708      -1.36249560       1.40656661       0.00000000
Si       0.00643455       2.34577629       2.90059423       0.00000000
Si      -2.70783783      -2.69861769      -0.00044940       0.00000000
Si      -2.69632080       2.71572219       0.01686995       0.00000000
Si      -2.70407484       0.00636939      -2.72809208       0.00000000
Si       2.72253534      -2.70998811       0.00618795       0.00000000
Si       2.70986335       2.72583828      -0.01026716       0.00000000
