10
Lattice="16.28999089631971 0.0 0.0 0.0 16.28999089631971 0.0 0.0 0.0 34.56954931742767" Properties=species:S:1:pos:R:3:initial_magmoms:R:1 pbc="T T T"
Si       1.63088379       1.08711315       1.28965233       0.00000000
Si       1.36961826      -1.34749251      -1.40037866       0.00000000
Si      -1.35291708       1.36249560      -1.40656661       0.00000000
Si      -0.86481981      -1.62473202       1.52600447       0.00000000
Si       0.28274294       2.35212939       2.73192930       0.00000000
Si      -2.68035660      -2.60265330       0.04867395       0.00000000
Si      -2.49168582      -0.17037711       2.82378064       0.00000000
Si       2.68573949       2.67463881      -0.09606883       0.00000000
Si      -2.79384903       2.57225616       0.04946905       0.00000000
Si       2.63756996      -2.78010027       0.07985570       0.00000000
