10
Lattice="16.28999089631971 0.0 0.0 0.0 16.28999089631971 0.0 0.0 0.0 34.56954931742767" Properties=species:S:1:pos:R:3:initial_magmoms:R:1 pbc="T T T"
Si       1.57330449       1.13968098       1.37839241       0.00000000
Si      -1.26795170       1.43260776      -1.48023436       0.00000000
Si       1.42649901      -1.28596518      -1.48904960       0.00000000
Si      -1.75935421      -0.81570546       1.54159534       0.00000000
Si      -2.53126971      -2.51662581      -0.02820877       0.00000000
Si       3.33648522      -0.67163670       1.36076193       0.00000000
Si       2.74085766      -2.58437592      -0.04670349       0.00000000
Si      -2.63756996       2.78010027      -0.07985570       0.00000000
Si      -2.62562512       0.07605801      -2.85537723       0.00000000
Si       0.09347202      -2.63968047      -2.85593034       0.00000000
