10
Lattice="16.28999089631971 0.0 0.0 0.0 16.28999089631971 0.0 0.0 0.0 34.56954931742767" Properties=species:S:1:pos:R:3:initial_magmoms:R:1 pbc="T T T"
Si      -1.05635763       2.07290250       0.27956410       0.00000000
Si       2.36895696       0.35173368      -0.15335061       0.00000000
Si       0.07341903      -0.93291201      -2.21003252       0.00000000
Si      -0.91745280      -1.41007869       1.76532959       0.00000000
Si      -0.04843017       3.42067194      -1.41081867       0.00000000
Si       3.08929003      -1.60634061      -1.29124253       0.00000000
Si      -1.96740846      -3.14015814       0.48141581       0.00000000
Si      -2.09600172      -1.53500670      -2.72397830       0.00000000
Si      -1.39258323       2.39552595       2.60371077       0.00000000
Si      -1.99956492       0.15009606       3.35594458       0.00000000
