10
Lattice="16.28999089631971 0.0 0.0 0.0 16.28999089631971 0.0 0.0 0.0 34.56954931742767" Properties=species:S:1:pos:R:3:initial_magmoms:R:1 pbc="T T T"
Si      -1.86412986       1.27290060      -0.61226163       0.00000000
Si       1.81840383       0.34619508      -1.52074989       0.00000000
Si       1.28609550       1.20404277       2.03365858       0.00000000
Si      -1.73385873      -1.23342993       2.10960382       0.00000000
Si       1.65680703       2.73352716      -0.73159578       0.00000000
Si       0.53475183      -0.46636641      -3.35414697       0.00000000
Si      -3.32434917       0.19772802       0.84812980       0.00000000
Si      -0.73982664       3.29932773      -0.91025131       0.00000000
Si      -0.53631567       0.34437060       3.45218077       0.00000000
Si       0.15299568      -3.04551324       1.75329938       0.00000000
