10
Lattice="16.28999089631971 0.0 0.0 0.0 16.28999089631971 0.0 0.0 0.0 34.56954931742767" Properties=species:S:1:pos:R:3:initial_magmoms:R:1 pbc="T T T"
Si       1.35727685       1.35674523      -1.35778895       0.00000000
Si      -1.35777150      -1.35798327      -1.35792723       0.00000000
Si       1.35971001      -1.35711990       1.35841120       0.00000000
Si      -1.35930276       1.35843939       1.36072736       0.00000000
Si       2.70061063       0.00509877       2.71709896       0.00000000
Si      -2.71332756      -2.71437012      -0.00072596       0.00000000
Si       0.00042354       2.71430496      -2.71519763       0.00000000
Si       2.71494746      -0.00034209      -2.71523220       0.00000000
Si       2.71530909       2.71489140       0.00010371       0.00000000
Si      -2.71510317      -0.00086337      -2.71526677       0.00000000
