10
Lattice="16.28999089631971 0.0 0.0 0.0 16.28999089631971 0.0 0.0 0.0 34.56954931742767" Properties=species:S:1:pos:R:3:initial_magmoms:R:1 pbc="T T T"
Si      -1.13831262       0.97726546       1.77649556       0.00000000
Si       1.71219303       1.62701818      -0.43402093       0.00000000
Si       0.73779039      -2.19247110       0.65053014       0.00000000
Si      -1.92498930      -0.71356716      -1.27337006       0.00000000
Si      -0.52905033      -0.83548152      -3.16726388       0.00000000
Si      -1.31030244      -2.80942227       1.53371348       0.00000000
Si      -1.96711524      -0.94262085       2.80787864       0.00000000
Si       0.32449680       2.32069688       2.92866472       0.00000000
Si       1.62051291      -2.07396135      -2.70541444       0.00000000
Si       1.45639116       3.34366001       1.12990635       0.00000000
