10
Lattice="16.28999089631971 0.0 0.0 0.0 16.28999089631971 0.0 0.0 0.0 34.56954931742767" Properties=species:S:1:pos:R:3:initial_magmoms:R:1 pbc="T T T"
Si      -2.39663367       0.56580057      -0.17865553       0.00000000
Si       0.16159680      -2.38733208      -0.78915411       0.00000000
Si       1.05117741       1.25121861      -2.02926825       0.00000000
Si      -0.37071153      -1.52948439       2.76525436       0.00000000
Si      -1.65680703      -2.73352716       0.73159578       0.00000000
Si       2.03735025       1.62629586       2.24280447       0.00000000
Si       3.28786676       0.60950664      -1.80881811       0.00000000
Si      -3.52093689      -1.46062656       0.11933415       0.00000000
Si       1.09558395       3.54676373       0.97455071       0.00000000
Si       0.57234915       3.49585748      -1.54342753       0.00000000
