10
Lattice="16.28999089631971 0.0 0.0 0.0 16.28999089631971 0.0 0.0 0.0 34.56954931742767" Properties=species:S:1:pos:R:3:initial_magmoms:R:1 pbc="T T T"
Si      -1.31787729       1.38293955       1.38270324       0.00000000
Si       1.41366249      -1.33643160       1.38530632       0.00000000
Si      -1.29077073      -1.49343462      -1.38690486       0.00000000
Si       1.14552909       1.37580453      -1.67569904       0.00000000
Si      -2.60980461       2.75967261      -0.13675721       0.00000000
Si      -2.66574610       0.01571985       2.75247054       0.00000000
Si       2.80264563       2.60509680      -0.25691066       0.00000000
Si       0.05031981      -2.69730146       2.75240140       0.00000000
Si       0.04929354       2.73241944       2.74935928       0.00000000
Si       2.77257429      -2.70997345       0.02274678       0.00000000
