10
Lattice="16.28999089631971 0.0 0.0 0.0 16.28999089631971 0.0 0.0 0.0 34.56954931742767" Properties=species:S:1:pos:R:3:initial_magmoms:R:1 pbc="T T T"
Si       1.35731538       1.35643572       1.35723583       0.00000000
Si       1.35729909      -1.35710361      -1.35744325       0.00000000
Si      -1.35739683       1.35760860      -1.35761610       0.00000000
Si      -1.35815431      -1.35998694       1.35692471       0.00000000
Si      -2.71263428       0.00083079       2.71602730       0.00000000
Si       2.71471221      -0.00004887      -2.71436796       0.00000000
Si      -2.71454838      -0.00001629      -2.71485193       0.00000000
Si      -0.00047241      -2.71495656      -2.71474823       0.00000000
Si      -2.71506744       2.71469592      -0.00017285       0.00000000
Si       2.71508688       2.71489140       0.00020742       0.00000000
