10
Lattice="16.28999089631971 0.0 0.0 0.0 16.28999089631971 0.0 0.0 0.0 34.56954931742767" Properties=species:S:1:pos:R:3:initial_magmoms:R:1 pbc="T T T"
Si       1.35577418       1.35688677       1.35761610       0.00000000
Si      -1.35846629      -1.35836856       1.35765067       0.00000000
Si       1.35588333      -1.36121931      -1.35761610       0.00000000
Si      -1.35895499       1.35816065      -1.36221385       0.00000000
Si       2.71360107      -2.71382688       0.00024199       0.00000000
Si       2.71319382       2.71485538       0.00017285       0.00000000
Si       2.71376397      -0.00048047       2.71502478       0.00000000
Si      -0.00149760       2.71431781       2.71519763       0.00000000
Si      -0.00161298      -2.71592829       2.71505935       0.00000000
Si      -2.71594457      -2.71530927      -0.00003457       0.00000000
