10
Lattice="16.28999089631971 0.0 0.0 0.0 16.28999089631971 0.0 0.0 0.0 34.56954931742767" Properties=species:S:1:pos:R:3:initial_magmoms:R:1 pbc="T T T"
Si       2.35716300      -0.15542289      -0.24855520       0.00000000
Si      -0.45118413       1.46375424       1.85597100       0.00000000
Si      -1.42248190      -1.92753054       0.38223572       0.00000000
Si      -1.02523559       0.40027788      -2.29293035       0.00000000
Si       2.01424221      -1.17481851      -2.40244674       0.00000000
Si      -1.44098082       3.22688610       0.70342158       0.00000000
Si       0.77812443       3.61224234      -0.39862170       0.00000000
Si      -2.96848502      -1.13254596       2.00347935       0.00000000
Si       3.15442818      -1.33405326       1.57747856       0.00000000
Si      -1.65878789       0.19341117       3.42764187       0.00000000
