10
Lattice="16.28999089631971 0.0 0.0 0.0 16.28999089631971 0.0 0.0 0.0 34.56954931742767" Properties=species:S:1:pos:R:3:initial_magmoms:R:1 pbc="T T T"
Si       1.35621130       1.35674523       1.35737411       0.00000000
Si       1.35727178      -1.35743104      -1.35758153       0.00000000
Si      -1.35747368       1.35754344      -1.35737411       0.00000000
Si      -1.35897236      -1.35793929       1.35671729       0.00000000
Si      -0.00094022       2.71482624      -2.71436796       0.00000000
Si      -2.71487051       0.00091224      -2.71443710       0.00000000
Si       0.00149760      -2.71431781      -2.71519763       0.00000000
Si       2.71469142       0.00053757      -2.71502478       0.00000000
Si       2.71493577       2.71498914      -0.00010371       0.00000000
Si       2.71526157      -2.71479828      -0.00017285       0.00000000
