10
Lattice="16.28999089631971 0.0 0.0 0.0 16.28999089631971 0.0 0.0 0.0 34.56954931742767" Properties=species:S:1:pos:R:3:initial_magmoms:R:1 pbc="T T T"
Si      -0.75370572      -0.76494582      -2.10307428       0.00000000
Si      -0.37971990       2.28002985       0.59608307       0.00000000
Si      -0.72786978      -1.15732305       1.96095878       0.00000000
Si       2.15849016      -0.21545154      -1.05903874       0.00000000
Si       1.22404689       0.07112214      -3.14634929       0.00000000
Si      -2.15215824       2.00018394       2.08789824       0.00000000
Si       1.01294478      -2.71769328       2.21933174       0.00000000
Si       3.58467966       1.43029458      -0.25533083       0.00000000
Si      -1.28754531       0.44049789       3.64166207       0.00000000
Si      -2.45165477       0.52299045      -3.01909871       0.00000000
