10
Lattice="16.28999089631971 0.0 0.0 0.0 16.28999089631971 0.0 0.0 0.0 34.56954931742767" Properties=species:S:1:pos:R:3:initial_magmoms:R:1 pbc="T T T"
Si      -1.11516453      -1.61806941       1.33300257       0.00000000
Si       1.46668644       1.35891084       1.29120796       0.00000000
Si       1.41141447      -1.26628686      -1.48991384       0.00000000
Si      -1.29164713       1.43849401      -1.48168628       0.00000000
Si       2.87236683      -2.57122989      -0.10319016       0.00000000
Si      -2.72783285      -2.76436413      -0.03954759       0.00000000
Si       0.06074541      -2.62716975      -2.86702717       0.00000000
Si      -2.56427325       2.92668488      -0.04089580       0.00000000
Si      -2.65858706       0.08905702      -2.86474558       0.00000000
Si       2.70785412       2.85893477      -0.05939052       0.00000000
