10
Lattice="16.28999089631971 0.0 0.0 0.0 16.28999089631971 0.0 0.0 0.0 34.56954931742767" Properties=species:S:1:pos:R:3:initial_magmoms:R:1 pbc="T T T"
Si      -0.93762049      -1.96902117       0.80056207       0.00000000
Si      -1.43734882       1.83422372       0.11781309       0.00000000
Si       1.04194750      -0.54033930      -2.02453222       0.00000000
Si       2.48191834      -2.14651701      -0.87879300       0.00000000
Si       0.11967937       2.95379144       1.77649556       0.00000000
Si       1.08893600      -3.23613882       0.77114337       0.00000000
Si      -1.54033420      -1.26092745       2.90705874       0.00000000
Si      -0.57072082      -1.68663402      -3.39708237       0.00000000
Si       0.67319077      -0.40953060       3.76749530       0.00000000
Si       2.89229602      -0.02417436       2.66545202       0.00000000
