10
Lattice="16.28999089631971 0.0 0.0 0.0 16.28999089631971 0.0 0.0 0.0 34.56954931742767" Properties=species:S:1:pos:R:3:initial_magmoms:R:1 pbc="T T T"
Si       1.68480954       1.23484716      -1.15998188       0.00000000
Si      -1.80853209      -1.01589327      -1.33044442       0.00000000
Si       1.39777974      -1.95595659       0.80215227       0.00000000
Si      -0.70771905       0.73215405       2.65940235       0.00000000
Si      -1.92761199       2.46534489       1.06142404       0.00000000
Si       1.03004928      -1.20052413       3.04475697       0.00000000
Si       0.77362839       1.96887456      -3.18185224       0.00000000
Si       3.57146847      -0.22791339      -1.36840180       0.00000000
Si      -2.49766425       2.54549169      -1.59154837       0.00000000
Si       2.10473316       3.29883903      -0.23161611       0.00000000
