10
Lattice="16.28999089631971 0.0 0.0 0.0 16.28999089631971 0.0 0.0 0.0 34.54679606040008" Properties=species:S:1:pos:R:3:initial_magmoms:R:1 pbc="T T T"
Si       0.86765427       2.01301787       0.81575395       0.00000000
Si       1.28989107      -1.49126805       1.28044316       0.00000000
Si      -2.26328536      -0.07685622       0.96078148       0.00000000
Si       0.69522462      -0.75722436      -2.25252146       0.00000000
Si       0.70030710      -3.52733886       0.17698334       0.00000000
Si      -1.15906608      -2.05227936      -2.86268731       0.00000000
Si      -3.65988149       0.50081976      -0.81644489       0.00000000
Si       1.69474644       1.56270037       3.02129174       0.00000000
Si       2.35129860       2.98436777      -0.68164321       0.00000000
Si       0.52387011       1.00866051      -3.82678529       0.00000000
