10
Lattice="16.28999089631971 0.0 0.0 0.0 16.28999089631971 0.0 0.0 0.0 34.54679606040008" Properties=species:S:1:pos:R:3:initial_magmoms:R:1 pbc="T T T"
Si       1.36239786       1.35482464      -1.35032792       0.00000000
Si       1.35575154      -1.35706051       1.36066087       0.00000000
Si      -1.36243044       1.35840844       1.36055723       0.00000000
Si      -1.37956752      -1.36670862      -1.37359174       0.00000000
Si      -0.04074129       2.60786773      -2.70398960       0.00000000
Si       2.57730606      -0.09915234      -2.76813958       0.00000000
Si      -2.71833674      -2.70756646       0.00549294       0.00000000
Si       2.71500543      -2.71378924       0.00252192       0.00000000
Si       2.71505430       2.71518625       0.00400743       0.00000000
Si       2.71259451       0.00131134       2.71817798       0.00000000
