10
Lattice="16.28999089631971 0.0 0.0 0.0 16.28999089631971 0.0 0.0 0.0 34.54679606040008" Properties=species:S:1:pos:R:3:initial_magmoms:R:1 pbc="T T T"
Si      -1.47750204      -1.91088216      -0.02055536       0.00000000
Si       0.29578242       0.61282980      -2.35761287       0.00000000
Si      -1.47077427       1.83352095       0.73342889       0.00000000
Si       2.18710354      -1.03254165      -0.91628518       0.00000000
Si       2.76606643       1.06277589       0.32795292       0.00000000
Si       1.91743889      -2.19393720       1.65641616       0.00000000
Si      -1.38473049       2.35602270      -2.47265376       0.00000000
Si      -2.30330730      -1.82299761      -2.28699918       0.00000000
Si      -3.32856732       1.56957408      -0.91407419       0.00000000
Si       0.20968651       3.70079478       0.91334870       0.00000000
