10
Lattice="16.28999089631971 0.0 0.0 0.0 16.28999089631971 0.0 0.0 0.0 34.54679606040008" Properties=species:S:1:pos:R:3:initial_magmoms:R:1 pbc="T T T"
Si      -1.35780408      -1.35648438       1.35772439       0.00000000
Si       1.35684297       1.35837185       1.35751711       0.00000000
Si      -1.35575154       1.35706051      -1.36066087       0.00000000
Si       1.35925389      -1.35672873      -1.35813895       0.00000000
Si       0.00664632       2.71188515      -2.71098879       0.00000000
Si       2.71283886      -2.71529844       0.00086367       0.00000000
Si      -0.00050499      -2.71394637       2.71493058       0.00000000
Si       2.71288773       2.71623458       0.00152006       0.00000000
Si       2.71432125       0.00072581       2.71524150       0.00000000
Si      -0.00063531       2.71600652       2.71475785       0.00000000
