10
Lattice="16.28999089631971 0.0 0.0 0.0 16.28999089631971 0.0 0.0 0.0 34.54679606040008" Properties=species:S:1:pos:R:3:initial_magmoms:R:1 pbc="T T T"
Si      -1.45108062       1.20638853      -1.41172106       0.00000000
Si      -1.42364826      -1.36423863       1.32569949       0.00000000
Si       1.27311237      -1.51818890      -1.40453533       0.00000000
Si       1.47479886       1.36091547       1.38532730       0.00000000
Si      -0.08044002       2.55151899      -2.79331730       0.00000000
Si       2.76850179       2.63099790      -0.11296809       0.00000000
Si      -2.86435215       2.55295251       0.11155167       0.00000000
Si       2.63660166      -0.16850376      -2.79003536       0.00000000
Si      -2.79450063      -0.16358418      -2.78772072       0.00000000
Si       2.50193223      -3.10014080       0.00272920       0.00000000
