10
Lattice="16.28999089631971 0.0 0.0 0.0 16.28999089631971 0.0 0.0 0.0 34.54679606040008" Properties=species:S:1:pos:R:3:initial_magmoms:R:1 pbc="T T T"
Si       0.80902656       1.98928430      -1.09869237       0.00000000
Si      -2.31614478      -0.68373202      -0.03523775       0.00000000
Si       1.19897658      -2.03151843      -0.56580774       0.00000000
Si       0.20414628       1.71647567       1.85509489       0.00000000
Si       0.61473573      -2.37338037       1.64639758       0.00000000
Si      -1.75669731      -2.29316841       1.61299081       0.00000000
Si       1.22121243       3.56143220       0.67034641       0.00000000
Si      -1.94877270       2.69503226       1.95984084       0.00000000
Si      -0.69258564       2.60771786      -2.76512710       0.00000000
Si      -3.14323695      -0.23341452      -2.24077554       0.00000000
