10
Lattice="16.28999089631971 0.0 0.0 0.0 16.28999089631971 0.0 0.0 0.0 34.54679606040008" Properties=species:S:1:pos:R:3:initial_magmoms:R:1 pbc="T T T"
Si      -1.22087034       1.40035356      -1.40716088       0.00000000
Si       1.67207076       1.22484510       1.17801186       0.00000000
Si      -1.24566372      -1.24584291       1.62048747       0.00000000
Si       1.49294592      -1.32253623      -1.39548406       0.00000000
Si       0.22693599       2.46096288       2.62839081       0.00000000
Si      -2.63443509      -2.68056837       0.13742723       0.00000000
Si      -2.59929756       2.73119769       0.02290454       0.00000000
Si      -2.56766238       0.03200985      -2.76516165       0.00000000
Si       0.49301685      -2.38655016       2.90182885       0.00000000
Si       0.14947704      -2.68200189      -2.76744174       0.00000000
