10
Lattice="16.28999089631971 0.0 0.0 0.0 16.28999089631971 0.0 0.0 0.0 34.54679606040008" Properties=species:S:1:pos:R:3:initial_magmoms:R:1 pbc="T T T"
Si       0.51438933      -1.73552031       1.55971962       0.00000000
Si       1.04195727       2.03349699       0.77274317       0.00000000
Si      -2.37356703       0.24853653      -0.38854803       0.00000000
Si       0.71822610      -1.04513382      -2.11499058       0.00000000
Si       3.05202924       0.99944037       1.46782509       0.00000000
Si       1.94786046      -0.50818284       2.96242396       0.00000000
Si      -2.47707369       0.81241488      -2.72052716       0.00000000
Si      -1.41154479      -2.52986958       2.69907359       0.00000000
Si      -3.20505750       2.33109900       0.29447705       0.00000000
Si      -0.33423822       3.11274207       2.48426149       0.00000000
