10
Lattice="16.28999089631971 0.0 0.0 0.0 16.28999089631971 0.0 0.0 0.0 34.54679606040008" Properties=species:S:1:pos:R:3:initial_magmoms:R:1 pbc="T T T"
Si      -2.11229172       0.60613461       0.93760057       0.00000000
Si       0.39900726      -1.70891874       1.63485894       0.00000000
Si       2.07065448       0.94929975       0.75747347       0.00000000
Si      -0.41041026      -0.90376920      -2.24443750       0.00000000
Si       0.21580992       0.02313180       3.41455096       0.00000000
Si       3.56899239      -0.84251880       0.34536451       0.00000000
Si       2.47510260       2.69232975      -0.72282302       0.00000000
Si      -1.21296969      -3.48239475       0.99021537       0.00000000
Si      -0.45258507       0.96286932      -3.72936327       0.00000000
Si       1.65519432      -1.79623314      -3.09010899       0.00000000
