10
Lattice="16.28999089631971 0.0 0.0 0.0 16.28999089631971 0.0 0.0 0.0 34.54679606040008" Properties=species:S:1:pos:R:3:initial_magmoms:R:1 pbc="T T T"
Si       1.48364433       0.97134989      -1.49739717       0.00000000
Si      -0.86765427      -2.01301787      -0.81575395       0.00000000
Si      -1.33043688       1.94772362       0.11500635       0.00000000
Si       0.82709217      -0.45031750       2.20553779       0.00000000
Si      -2.35960650       1.38265610       2.21562546       0.00000000
Si       0.42223680      -3.50428592       0.46468921       0.00000000
Si      -2.57991898       1.79230073      -1.91938651       0.00000000
Si      -0.41751270       1.15497077       3.55597280       0.00000000
Si       0.38504673       3.73359632       0.32131993       0.00000000
Si      -3.13093963      -2.08987409       0.14502753       0.00000000
