10
Lattice="16.28999089631971 0.0 0.0 0.0 16.28999089631971 0.0 0.0 0.0 34.54679606040008" Properties=species:S:1:pos:R:3:initial_magmoms:R:1 pbc="T T T"
Si      -1.26389223       1.94067657      -0.03623961       0.00000000
Si      -0.40444812      -1.74303000       1.48029649       0.00000000
Si       0.49194171      -0.26699310      -2.27197131       0.00000000
Si       2.10310416       0.80410698       0.75702437       0.00000000
Si       0.26997417       3.46092453      -0.99809204       0.00000000
Si       0.36551502       2.06549055      -2.95347634       0.00000000
Si       3.54701718      -0.69020730      -0.36426162       0.00000000
Si      -2.47510260      -2.69232975       0.72282302       0.00000000
Si       2.68842015      -1.14214077      -2.47002821       0.00000000
Si       1.09388979      -3.53484855       1.06818753       0.00000000
