10
Lattice="16.28999089631971 0.0 0.0 0.0 16.28999089631971 0.0 0.0 0.0 34.54679606040008" Properties=species:S:1:pos:R:3:initial_magmoms:R:1 pbc="T T T"
Si       1.94209380      -0.22768533       1.34034734       0.00000000
Si       1.02916962       0.56506752      -2.10061911       0.00000000
Si      -1.41163113      -2.01581908      -0.25077533       0.00000000
Si      -0.71287484       2.05843698       1.17528266       0.00000000
Si      -2.50138556       2.35243890      -0.40191765       0.00000000
Si       2.35960650      -1.38265610      -2.21562546       0.00000000
Si       3.18669867      -1.83297361      -0.01008767       0.00000000
Si       1.65692106      -0.24198795       3.67678301       0.00000000
Si      -1.35550719      -3.45946562       1.68405361       0.00000000
Si       2.74465323       2.35094022      -1.89430553       0.00000000
