10
Lattice="16.28999089631971 0.0 0.0 0.0 16.28999089631971 0.0 0.0 0.0 34.54679606040008" Properties=species:S:1:pos:R:3:initial_magmoms:R:1 pbc="T T T"
Si      -2.18711169       0.17304867       0.87127068       0.00000000
Si       0.26940402      -1.94080689      -1.33492349       0.00000000
Si       1.52935407       0.56381319       1.73324827       0.00000000
Si       0.55749267       1.89912078      -1.37434141       0.00000000
Si      -1.77492582       1.74519657       2.64030946       0.00000000
Si       3.68890308      -0.01738143       0.92841112       0.00000000
Si       0.59929281       2.48523498       2.81815646       0.00000000
Si      -0.58753143       1.77587064      -3.35456487       0.00000000
Si      -3.68872389       0.79148223      -0.79516405       0.00000000
Si       0.24814557      -3.86494001       0.05924779       0.00000000
