10
Lattice="16.28999089631971 0.0 0.0 0.0 16.28999089631971 0.0 0.0 0.0 34.54679606040008" Properties=species:S:1:pos:R:3:initial_magmoms:R:1 pbc="T T T"
Si       1.47036798       1.23538473      -1.25736589       0.00000000
Si       1.49574780      -0.73094859       1.69224120       0.00000000
Si      -1.27102725      -1.55631402      -1.31067163       0.00000000
Si      -0.96764229       1.49064903       1.65769439       0.00000000
Si       1.28078496       1.38595320       2.72595101       0.00000000
Si      -2.59737534       2.27105406      -0.04556725       0.00000000
Si      -0.23837157      -1.75327641       2.99797264       0.00000000
Si      -0.02673189       2.44604124      -2.62828717       0.00000000
Si      -2.13591222      -0.09831015       3.05117473       0.00000000
Si       2.66787846      -0.28072557      -2.61795767       0.00000000
