10
Lattice="16.28999089631971 0.0 0.0 0.0 16.28999089631971 0.0 0.0 0.0 34.54679606040008" Properties=species:S:1:pos:R:3:initial_magmoms:R:1 pbc="T T T"
Si       1.34637502       1.33692030      -1.36502068       0.00000000
Si      -1.35803478       1.35469269       1.35637706       0.00000000
Si       1.35517162      -1.36016613       1.35530611       0.00000000
Si      -1.35148423      -1.35594702      -1.39121062       0.00000000
Si       2.67686077      -0.11070684      -2.70924072       0.00000000
Si      -2.71057522       2.71047681      -0.00490565       0.00000000
Si       0.00664143       2.51173881      -2.89933802       0.00000000
Si       0.00032254       2.71248048       2.71303050       0.00000000
Si      -2.71446853      -0.00224802       2.71320324       0.00000000
Si       2.71502824      -0.00226431       2.71282322       0.00000000
