10
Lattice="16.28999089631971 0.0 0.0 0.0 16.28999089631971 0.0 0.0 0.0 34.54679606040008" Properties=species:S:1:pos:R:3:initial_magmoms:R:1 pbc="T T T"
Si      -1.75718601      -0.71104221       1.50814265       0.00000000
Si       1.94197977      -1.61300322      -0.00836033       0.00000000
Si       1.04860359       2.06086419       1.40473712       0.00000000
Si      -1.62597006      -0.88265736      -2.36645685       0.00000000
Si      -0.41229990      -1.99783818       2.95154314       0.00000000
Si       0.88158222       1.66447962      -3.08972898       0.00000000
Si       0.96161499      -3.29800824       1.53801182       0.00000000
Si       2.32554411       0.72876573       2.92815840       0.00000000
Si      -0.12763215      -2.67447591      -2.77856581       0.00000000
Si      -3.48081462      -1.80882531       0.29062063       0.00000000
