10
Lattice="16.28999089631971 0.0 0.0 0.0 16.28999089631971 0.0 0.0 0.0 34.54679606040008" Properties=species:S:1:pos:R:3:initial_magmoms:R:1 pbc="T T T"
Si      -0.98036478      -1.68500502       1.54637215       0.00000000
Si       1.80002871       1.00361061       1.42019682       0.00000000
Si      -1.94197977       1.61300322       0.00836033       0.00000000
Si       0.30460671      -0.32143428      -2.59235848       0.00000000
Si      -2.06961192      -1.06147269      -2.77020548       0.00000000
Si       0.38356434       2.34176895       2.93651873       0.00000000
Si      -2.35427967      -0.38483496       2.95990347       0.00000000
Si      -0.89337618       3.67386741       1.41309745       0.00000000
Si      -2.03737401      -3.50515188       0.44554237       0.00000000
Si       3.39374457       2.27854746      -0.15991721       0.00000000
