10
Lattice="16.28999089631971 0.0 0.0 0.0 16.28999089631971 0.0 0.0 0.0 34.54679606040008" Properties=species:S:1:pos:R:3:initial_magmoms:R:1 pbc="T T T"
Si       1.27694052      -1.33209846       1.52342128       0.00000000
Si      -1.45644003       1.37766159       1.50477982       0.00000000
Si       1.64147814       1.30526883      -1.38338719       0.00000000
Si      -1.04860359      -2.06086419      -1.40473712       0.00000000
Si      -0.01760949       1.96882569      -2.85677432       0.00000000
Si       2.69340489      -2.67025680       0.00709937       0.00000000
Si       2.65077396       2.76653070       0.16347553       0.00000000
Si       2.61656496       0.02078604       2.91134995       0.00000000
Si      -2.80578960      -2.77190640       0.10340553       0.00000000
Si      -0.09076788      -2.69276958       2.90710069       0.00000000
