10
Lattice="16.28999089631971 0.0 0.0 0.0 16.28999089631971 0.0 0.0 0.0 34.54679606040008" Properties=species:S:1:pos:R:3:initial_magmoms:R:1 pbc="T T T"
Si       1.86867477       1.27026162       0.72665771       0.00000000
Si      -1.01421540      -1.13938776       1.82980662       0.00000000
Si       1.02820851      -1.78512336      -1.28545245       0.00000000
Si      -1.63475037       0.89008560      -1.62097112       0.00000000
Si       2.83853250       1.45207431      -1.46122665       0.00000000
Si      -0.63630369      -3.47415201      -0.87831823       0.00000000
Si      -2.34646047      -2.71277370       0.71840103       0.00000000
Si       0.82284048       2.76314238      -2.27639330       0.00000000
Si       0.72584982      -2.55151899       2.80440683       0.00000000
Si       0.19567548      -1.48504527      -3.62368456       0.00000000
