10
Lattice="16.28999089631971 0.0 0.0 0.0 16.28999089631971 0.0 0.0 0.0 34.54679606040008" Properties=species:S:1:pos:R:3:initial_magmoms:R:1 pbc="T T T"
Si       0.62214768      -0.33915780      -2.28050438       0.00000000
Si      -0.01461213       2.34494550      -0.45311603       0.00000000
Si      -2.26463580      -0.90091845       0.00134733       0.00000000
Si       1.63475037      -0.89008560       1.62097112       0.00000000
Si       2.45759085       1.87305678      -0.65542218       0.00000000
Si       1.83042585      -2.37513087      -2.00271343       0.00000000
Si       2.66295888      -2.67520896       0.33551867       0.00000000
Si      -2.58110163      -1.70520462      -2.22198207       0.00000000
Si       2.37946401       1.20192507      -2.89481585       0.00000000
Si       0.62053497      -2.02947336       3.45077775       0.00000000
