10
Lattice="16.28999089631971 0.0 0.0 0.0 16.28999089631971 0.0 0.0 0.0 34.54679606040008" Properties=species:S:1:pos:R:3:initial_magmoms:R:1 pbc="T T T"
Si       1.35213516       1.35073422       1.34466569       0.00000000
Si      -1.35519768       1.35679410      -1.35281874       0.00000000
Si       1.35562122      -1.35834002      -1.35375151       0.00000000
Si      -1.35703845      -1.35303600       1.36497922       0.00000000
Si      -0.12067632       2.52495000       2.72273816       0.00000000
Si       2.57973327      -0.00879660       2.75110109       0.00000000
Si       0.06581160      -2.56163655       2.81083254       0.00000000
Si       0.00042354       2.71375110      -2.71005948       0.00000000
Si      -2.71404432      -0.00105885      -2.71009403       0.00000000
Si      -2.71208952       2.71205694       0.00604569       0.00000000
