10
Lattice="16.28999089631971 0.0 0.0 0.0 16.28999089631971 0.0 0.0 0.0 34.54679606040008" Properties=species:S:1:pos:R:3:initial_magmoms:R:1 pbc="T T T"
Si       1.35703845       1.35303600      -1.36497922       0.00000000
Si      -1.35645201      -1.36233499      -1.35872625       0.00000000
Si       1.42285005      -1.20860055       1.44585332       0.00000000
Si      -1.41540552       1.18893054       1.48675675       0.00000000
Si      -0.30771810      -2.37487253       2.50084396       0.00000000
Si      -2.20208220      -0.90245623       2.58517274       0.00000000
Si       2.10082356       0.64951977       2.79666834       0.00000000
Si       0.21717828       2.06834619       2.98999232       0.00000000
Si      -2.69154783       2.68453173       0.00383470       0.00000000
Si       2.70917361       2.70377022      -0.02031353       0.00000000
