10
Lattice="16.28999089631971 0.0 0.0 0.0 16.28999089631971 0.0 0.0 0.0 34.54679606040008" Properties=species:S:1:pos:R:3:initial_magmoms:R:1 pbc="T T T"
Si      -1.10237688      -1.15230573      -1.72972450       0.00000000
Si      -0.11916135       2.22723396      -0.76617927       0.00000000
Si      -0.70364655      -0.18665082       2.28527184       0.00000000
Si       2.20555753      -0.97453296      -0.25167355       0.00000000
Si       1.04899455      -1.55088945       3.08748344       0.00000000
Si      -0.91579122      -3.42827027      -1.25947325       0.00000000
Si       2.01986130       3.23187084      -0.09234364       0.00000000
Si       3.52648268      -0.04160466       1.48447666       0.00000000
Si      -2.45936646       2.93125518      -0.28276568       0.00000000
Si       0.33430338       2.32842744      -3.09719109       0.00000000
