10
Lattice="16.28999089631971 0.0 0.0 0.0 16.28999089631971 0.0 0.0 0.0 34.54679606040008" Properties=species:S:1:pos:R:3:initial_magmoms:R:1 pbc="T T T"
Si      -1.09965645      -1.39395322       1.45237372       0.00000000
Si       0.86348403      -1.62355751      -1.45252085       0.00000000
Si       1.60521660       1.28730096       1.21081203       0.00000000
Si      -1.64906928      -1.02589533      -1.54856100       0.00000000
Si      -2.48010363      -0.00358380       2.78110297       0.00000000
Si      -1.97656344      -3.19364540       0.06857543       0.00000000
Si       2.72816775      -2.64237435      -0.03302676       0.00000000
Si       0.24410565       2.69591355       2.75541050       0.00000000
Si       0.24866685      -2.72563264       2.79922968       0.00000000
Si       3.01077337       2.59550199      -0.31057587       0.00000000
