10
Lattice="16.28999089631971 0.0 0.0 0.0 16.28999089631971 0.0 0.0 0.0 34.54679606040008" Properties=species:S:1:pos:R:3:initial_magmoms:R:1 pbc="T T T"
Si      -0.76314156      -1.74110778      -1.33993278       0.00000000
Si      -1.68051291       1.74319290      -0.11504090       0.00000000
Si      -0.29578242      -0.61282980       2.35761287       0.00000000
Si       2.01893699       0.98438841      -1.18219202       0.00000000
Si       1.89132113      -1.64537145       1.44132768       0.00000000
Si      -1.99073967      -0.38157696      -2.74636818       0.00000000
Si      -2.59908972      -2.43582741       0.07061369       0.00000000
Si       0.74119174       2.33772903      -2.71327233       0.00000000
Si       2.47028402       0.44994609       2.68556579       0.00000000
Si      -1.76655669       1.22069115       3.09104176       0.00000000
