10
Lattice="16.28999089631971 0.0 0.0 0.0 16.28999089631971 0.0 0.0 0.0 34.54679606040008" Properties=species:S:1:pos:R:3:initial_magmoms:R:1 pbc="T T T"
Si       1.22759811      -1.35953082       1.40643540       0.00000000
Si      -1.47281148       1.17421578       1.37807246       0.00000000
Si      -1.35213516      -1.35073422      -1.34466569       0.00000000
Si       1.36313091       1.36475991      -1.33744541       0.00000000
Si       0.31022676       2.12476986       2.63132729       0.00000000
Si       1.99073967       0.38157696       2.74636818       0.00000000
Si      -0.60835005      -2.05425045       2.81698187       0.00000000
Si      -2.70733284       0.00605988      -2.69748444       0.00000000
Si       0.00348606      -2.70907424      -2.69841720       0.00000000
Si      -2.70917361      -2.70377022       0.02031353       0.00000000
