10
Lattice="16.28999089631971 0.0 0.0 0.0 16.28999089631971 0.0 0.0 0.0 34.54679606040008" Properties=species:S:1:pos:R:3:initial_magmoms:R:1 pbc="T T T"
Si      -1.35567009      -1.35827649      -1.37099037       0.00000000
Si       1.35812988       1.35931905      -1.36919393       0.00000000
Si      -1.19751048       1.51611030       1.36059178       0.00000000
Si       1.23574311      -1.54538343       1.34570210       0.00000000
Si      -2.66787846       0.28072557       2.61795767       0.00000000
Si       0.42013539       2.57253309       2.71541423       0.00000000
Si      -2.69461035       2.72676681      -0.01032950       0.00000000
Si       2.71117728       2.71713942      -0.00193462       0.00000000
Si       2.70855459      -2.71959921      -0.03237037       0.00000000
Si      -2.69216685      -2.73883770      -0.00822214       0.00000000
