10
Lattice="16.28999089631971 0.0 0.0 0.0 16.28999089631971 0.0 0.0 0.0 34.54679606040008" Properties=species:S:1:pos:R:3:initial_magmoms:R:1 pbc="T T T"
Si      -0.34081938       1.89635148      -1.45490458       0.00000000
Si       0.95610897       1.30715847       1.83191885       0.00000000
Si       1.79949114      -0.97824708      -1.38353086       0.00000000
Si      -1.59371586      -1.27493685       1.58011403       0.00000000
Si       0.04605183      -2.06575119      -2.49559285       0.00000000
Si       2.40672583       2.65328262       0.67359246       0.00000000
Si       2.46973360      -2.76529266       0.02369912       0.00000000
Si      -2.64564261       2.70058878       0.18962747       0.00000000
Si       1.51830945       3.38527377      -1.31927379       0.00000000
Si       2.42712368       0.03727152       3.11318423       0.00000000
