10
Lattice="16.28999089631971 0.0 0.0 0.0 16.28999089631971 0.0 0.0 0.0 34.54679606040008" Properties=species:S:1:pos:R:3:initial_magmoms:R:1 pbc="T T T"
Si      -1.66451220      -1.68902865       0.40713422       0.00000000
Si      -1.02820851       1.78512336       1.28545245       0.00000000
Si       2.40139035      -0.53305767      -0.15711892       0.00000000
Si      -0.83253303       0.30007809      -2.33823210       0.00000000
Si      -2.29177494      -1.48796118      -1.90418592       0.00000000
Si       3.17094445       1.51303149      -1.05481791       0.00000000
Si       1.81032399       3.23719767      -0.17577420       0.00000000
Si       0.84046626       3.05538498       2.01211017       0.00000000
Si      -2.04242391       0.64573560       3.11525908       0.00000000
Si      -2.66295888       2.67520896      -0.33551867       0.00000000
