10
Lattice="16.28999089631971 0.0 0.0 0.0 16.28999089631971 0.0 0.0 0.0 34.54679606040008" Properties=species:S:1:pos:R:3:initial_magmoms:R:1 pbc="T T T"
Si       0.57948417       1.93197771      -1.21362962       0.00000000
Si       0.17154999       0.08117307       2.37982647       0.00000000
Si       0.35277624      -1.98068481      -1.29806204       0.00000000
Si      -2.29689000      -0.01435149       0.68803437       0.00000000
Si      -1.59280362       2.17285794      -2.07370714       0.00000000
Si      -2.57546529       2.27919906       0.06677899       0.00000000
Si       2.70008379       1.18765503      -1.89606741       0.00000000
Si       1.56139650      -1.72858077       2.92400791       0.00000000
Si       3.75611562       0.26235045       0.17567056       0.00000000
Si      -1.63859481      -3.18998925      -1.17279529       0.00000000
