10
Lattice="16.28999089631971 0.0 0.0 0.0 16.28999089631971 0.0 0.0 0.0 34.54679606040008" Properties=species:S:1:pos:R:3:initial_magmoms:R:1 pbc="T T T"
Si       1.35019665       1.36557441      -1.34691124       0.00000000
Si      -1.36264221      -1.35123921      -1.35121923       0.00000000
Si       1.35623898      -1.35759231       1.35806986       0.00000000
Si      -1.35940050       1.35782037       1.35744802       0.00000000
Si       2.66190070      -0.04336398      -2.62139162       0.00000000
Si      -0.02357163       2.68892514      -2.71259867       0.00000000
Si       2.71377458       0.00060273       2.71593244       0.00000000
Si      -0.00148239      -2.71415835       2.71593244       0.00000000
Si      -0.00175932       2.71681362       2.71582880       0.00000000
Si      -2.71687878       0.00089595       2.71586334       0.00000000
