10
Lattice="16.28999089631971 0.0 0.0 0.0 16.28999089631971 0.0 0.0 0.0 34.54679606040008" Properties=species:S:1:pos:R:3:initial_magmoms:R:1 pbc="T T T"
Si      -0.80449468       1.02773610      -1.94014915       0.00000000
Si      -1.50238990       0.51616494       1.73898305       0.00000000
Si       0.70212669      -2.24573940      -0.36332886       0.00000000
Si       2.05084095       0.94706802       0.77125765       0.00000000
Si       1.93350408      -0.20010636       2.85612341       0.00000000
Si       2.70925017      -1.65926682      -1.48033104       0.00000000
Si      -0.34011891      -0.51471513       3.52557160       0.00000000
Si       1.15669914       1.05686262      -3.39888843       0.00000000
Si      -1.15131204       3.31643223      -1.54496813       0.00000000
Si      -0.61879846      -3.17866770      -2.09947906       0.00000000
