10
Lattice="16.28999089631971 0.0 0.0 0.0 16.28999089631971 0.0 0.0 0.0 34.54679606040008" Properties=species:S:1:pos:R:3:initial_magmoms:R:1 pbc="T T T"
Si      -1.35431802       1.35641943      -1.36632655       0.00000000
Si       1.36119240      -1.36161594      -1.36491013       0.00000000
Si      -1.37661903      -1.35216774       1.36000448       0.00000000
Si       1.37073834       1.36746405       1.38467091       0.00000000
Si       0.07734492      -2.59496442       2.71886892       0.00000000
Si      -2.70995553       2.71376740      -0.00677118       0.00000000
Si      -2.71220355      -2.71777473      -0.00988039       0.00000000
Si       2.71691136       2.71356337      -0.00652935       0.00000000
Si      -2.71147050      -0.00179190      -2.72353274       0.00000000
Si       0.00364896       2.71347450      -2.72308363       0.00000000
