10
Lattice="16.28999089631971 0.0 0.0 0.0 16.28999089631971 0.0 0.0 0.0 34.54679606040008" Properties=species:S:1:pos:R:3:initial_magmoms:R:1 pbc="T T T"
Si      -1.86867477      -1.27026162      -0.72665771       0.00000000
Si       0.96985773       0.18181269      -2.18788436       0.00000000
Si      -0.40926996       2.30496984       0.54138314       0.00000000
Si       1.43133714      -1.12081716       1.63485894       0.00000000
Si      -1.04583429       1.49288076      -3.00305102       0.00000000
Si      -0.06250473       3.20593716      -1.61744735       0.00000000
Si       2.08046106       2.27496366      -2.04385869       0.00000000
Si      -0.84046626      -3.05538498      -2.01211017       0.00000000
Si       1.62227223       2.96018622       1.71352204       0.00000000
Si      -2.88289017      -2.40964938       1.10314891       0.00000000
