10
Lattice="16.28999089631971 0.0 0.0 0.0 16.28999089631971 0.0 0.0 0.0 34.54679606040008" Properties=species:S:1:pos:R:3:initial_magmoms:R:1 pbc="T T T"
Si       1.36062046      -1.72416618      -0.87904372       0.00000000
Si       1.11060333       2.09315097       0.14402567       0.00000000
Si      -0.96985773      -0.18181269       2.18788436       0.00000000
Si      -2.01569202       1.31106807      -0.81516666       0.00000000
Si      -1.03236246       3.02412447       0.57043702       0.00000000
Si      -2.83853250      -1.45207431       1.46122665       0.00000000
Si       3.51064880      -1.14036516      -0.09144542       0.00000000
Si      -1.81032399      -3.23719767       0.17577420       0.00000000
Si      -1.37912769       2.12315715       2.72926751       0.00000000
Si      -2.09381886       0.63993636      -3.05456032       0.00000000
