10
Lattice="16.28999089631971 0.0 0.0 0.0 16.28999089631971 0.0 0.0 0.0 34.54679606040008" Properties=species:S:1:pos:R:3:initial_magmoms:R:1 pbc="T T T"
Si      -0.67024246       1.78704558      -1.40722998       0.00000000
Si       1.30213024       1.26607509       1.56274389       0.00000000
Si      -1.40555677      -1.30820103       1.52138790       0.00000000
Si       0.91997009      -0.92848113      -2.15420122       0.00000000
Si       2.67561670       0.87392592      -2.04175134       0.00000000
Si      -2.42368177       0.69954147      -2.51929196       0.00000000
Si      -2.46973360       2.76529266      -0.02369912       0.00000000
Si       3.19225405       1.92637395       0.31420329       0.00000000
Si      -0.86854063      -0.63447921      -3.73140153       0.00000000
Si      -3.01077337      -2.59550199       0.31057587       0.00000000
