10
Lattice="16.28999089631971 0.0 0.0 0.0 16.28999089631971 0.0 0.0 0.0 34.54679606040008" Properties=species:S:1:pos:R:3:initial_magmoms:R:1 pbc="T T T"
Si       1.05477750       1.64688676      -1.28886775       0.00000000
Si       1.56162456      -1.14116337       1.34452405       0.00000000
Si      -0.84955608      -1.82602755      -1.26838253       0.00000000
Si      -1.18263771       1.56486163       1.34899096       0.00000000
Si      -2.57232784      -2.54137032       0.10378209       0.00000000
Si       0.19890090      -2.50155756       2.72240996       0.00000000
Si      -2.52140692       0.22400379       2.72807564       0.00000000
Si       2.86246251      -2.43079380      -0.26275962       0.00000000
Si       1.56283002       0.46648044      -3.42559109       0.00000000
Si      -2.48377377       2.96799957      -0.14311364       0.00000000
