10
Lattice="16.28999089631971 0.0 0.0 0.0 16.28999089631971 0.0 0.0 0.0 34.54679606040008" Properties=species:S:1:pos:R:3:initial_magmoms:R:1 pbc="T T T"
Si       1.35793809       1.35726651       1.35703345       0.00000000
Si       1.35752107      -1.35827649      -1.35768984       0.00000000
Si      -1.35801283       1.35793440      -1.35779348       0.00000000
Si      -1.35765445      -1.36014984       1.35775894       0.00000000
Si      -0.00105583       2.71368594      -2.71413600       0.00000000
Si       2.71464097       2.71477717      -0.00055275       0.00000000
Si       2.71382647      -0.00060273      -2.71582880       0.00000000
Si      -2.71519789       2.71494060      -0.00041456       0.00000000
Si      -2.71516531      -2.71538010      -0.00051820       0.00000000
Si       2.71525999      -2.71583622      -0.00065639       0.00000000
