10
Lattice="16.28999089631971 0.0 0.0 0.0 16.28999089631971 0.0 0.0 0.0 34.54679606040008" Properties=species:S:1:pos:R:3:initial_magmoms:R:1 pbc="T T T"
Si      -1.34275212      -1.36555812      -1.38829832       0.00000000
Si       1.37323071       1.34930070      -1.38954201       0.00000000
Si       1.30350951      -1.50198687       1.34981317       0.00000000
Si      -1.48195017       1.32644583       1.62636043       0.00000000
Si      -2.70287427       2.69629866      -0.00048366       0.00000000
Si      -2.71035463      -2.71388142      -0.00003455       0.00000000
Si       2.72797227       2.70920360      -0.00466382       0.00000000
Si      -2.69805406      -0.00969255      -2.75003014       0.00000000
Si       0.01580130       2.70300689      -2.75096291       0.00000000
Si       0.01583388      -2.72574054      -2.75030652       0.00000000
