10
Lattice="16.28999089631971 0.0 0.0 0.0 16.28999089631971 0.0 0.0 0.0 34.54679606040008" Properties=species:S:1:pos:R:3:initial_magmoms:R:1 pbc="T T T"
Si      -0.23068269      -2.29731354      -0.52203693       0.00000000
Si      -2.22527101       0.73227087      -0.43781179       0.00000000
Si       1.91531304       0.78716898      -1.21117680       0.00000000
Si       0.73076940       0.66720582       2.19686654       0.00000000
Si      -0.73049247       2.36235041      -2.81452905       0.00000000
Si      -1.47926884      -3.44046429       1.10691451       0.00000000
Si      -2.24745148       3.08684816      -0.89199877       0.00000000
Si      -0.49081770       2.70890387       2.79445735       0.00000000
Si       3.14009298       0.85559187       2.20132308       0.00000000
Si      -3.68402327       0.38735991       1.43117092       0.00000000
