10
Lattice="16.28999089631971 0.0 0.0 0.0 16.28999089631971 0.0 0.0 0.0 34.54679606040008" Properties=species:S:1:pos:R:3:initial_magmoms:R:1 pbc="T T T"
Si      -0.07824087      -1.62473202       1.67282589       0.00000000
Si       1.85429070       1.29505500       0.61016585       0.00000000
Si      -0.52710205      -1.04673024      -2.05405000       0.00000000
Si      -1.94826250       1.39447287       0.07783398       0.00000000
Si      -3.32536634      -0.48555603       0.40361044       0.00000000
Si       1.68293619       3.06093987      -0.96409798       0.00000000
Si      -2.26933451      -1.41086061       2.47534841       0.00000000
Si      -2.92279157      -1.29990942      -1.80845669       0.00000000
Si       1.15906608       2.05227936       2.86268731       0.00000000
Si       0.72148410       0.09642051      -3.68300144       0.00000000
