10
Lattice="16.28999089631971 0.0 0.0 0.0 16.28999089631971 0.0 0.0 0.0 34.56954931742767" Properties=species:S:1:pos:R:3:initial_magmoms:R:1 pbc="T T T"
Si      -1.35733460       1.35661112      -1.36280153       0.00000000
Si       1.35966213      -1.35752183      -1.36172988       0.00000000
Si       1.36710341       1.34946470       1.38364698       0.00000000
Si      -1.35539609      -1.35996533       1.38492606       0.00000000
Si      -2.71463369      -2.71615670      -0.00286927       0.00000000
Si      -2.71520384       2.71588130      -0.00283470       0.00000000
Si      -2.71357484      -0.00046029      -2.71934598       0.00000000
Si       2.71906589       2.71456181      -0.00390636       0.00000000
Si       0.00173571       2.71457810      -2.71951883       0.00000000
Si       0.00162045      -2.71566800      -2.71962253       0.00000000
