10
Lattice="16.28999089631971 0.0 0.0 0.0 16.28999089631971 0.0 0.0 0.0 34.56954931742767" Properties=species:S:1:pos:R:3:initial_magmoms:R:1 pbc="T T T"
Si       0.46789767       2.30474178       0.19849846       0.00000000
Si      -2.24124336       0.10033011       0.79980154       0.00000000
Si       0.41708916      -1.10003112      -2.07310246       0.00000000
Si       1.76389749      -0.71280153       1.48289622       0.00000000
Si       0.22182093       2.29669452       2.55545165       0.00000000
Si       2.70703962       2.37213351      -0.38745573       0.00000000
Si      -1.97912097       1.55836656       2.70634782       0.00000000
Si       3.65852223       0.34950195       0.40574303       0.00000000
Si       2.42880642      -2.32214439      -1.89496547       0.00000000
Si       1.67498667      -3.10422959       1.57692544       0.00000000
