10
Lattice="16.28999089631971 0.0 0.0 0.0 16.28999089631971 0.0 0.0 0.0 34.56954931742767" Properties=species:S:1:pos:R:3:initial_magmoms:R:1 pbc="T T T"
Si      -1.35907470       1.35246096      -1.36207557       0.00000000
Si       1.35850455      -1.36295172      -1.36065822       0.00000000
Si       1.35767376       1.35547461       1.38019003       0.00000000
Si      -1.37893221      -1.36572102       1.36484114       0.00000000
Si       2.47891446      -0.14577921       2.85316478       0.00000000
Si      -2.71003698       2.70738171      -0.00286927       0.00000000
Si       2.71588509       2.71212210      -0.00148649       0.00000000
Si       0.00074934       2.71028133      -2.71796319       0.00000000
Si      -2.71153566      -2.71940373      -0.00235073       0.00000000
Si      -2.71391400      -0.00438201      -2.71806690       0.00000000
