10
Lattice="16.28999089631971 0.0 0.0 0.0 16.28999089631971 0.0 0.0 0.0 34.56954931742767" Properties=species:S:1:pos:R:3:initial_magmoms:R:1 pbc="T T T"
Si       1.17385740       1.61112987       1.27444172       0.00000000
Si      -1.12124070       1.50125382      -1.47297475       0.00000000
Si      -1.94737176      -0.60575994       1.36062365       0.00000000
Si       1.57854987      -1.21995810      -1.48006151       0.00000000
Si       2.12525856      -0.11497482       2.50020948       0.00000000
Si      -2.54288529      -2.51831997      -0.04659978       0.00000000
Si       0.63993636      -2.11467006       2.94173201       0.00000000
Si      -2.47891446       0.14577921      -2.85316478       0.00000000
Si      -2.47959864       2.86047513       0.03640176       0.00000000
Si       0.23802948      -2.57272857      -2.85413273       0.00000000
