10
Lattice="16.28999089631971 0.0 0.0 0.0 16.28999089631971 0.0 0.0 0.0 34.56954931742767" Properties=species:S:1:pos:R:3:initial_magmoms:R:1 pbc="T T T"
Si      -2.23192548      -0.34474527       0.70411297       0.00000000
Si       1.22758182      -1.71072693       1.09862089       0.00000000
Si       0.89472825       2.01567573       0.95875242       0.00000000
Si       0.30289626      -0.22999851      -2.38796209       0.00000000
Si      -2.75779926      -2.61575046       0.08345094       0.00000000
Si      -3.63882762       1.24167267      -0.36643743       0.00000000
Si       3.22340004       2.10227337       0.35547887       0.00000000
Si      -2.27276451      -0.36645984       3.10538435       0.00000000
Si       3.46672377      -1.64333520       0.51266670       0.00000000
Si      -1.13943663       1.30334661      -3.49740326       0.00000000
