10
Lattice="16.28999089631971 0.0 0.0 0.0 16.28999089631971 0.0 0.0 0.0 34.56954931742767" Properties=species:S:1:pos:R:3:initial_magmoms:R:1 pbc="T T T"
Si       1.35840681      -1.35679410       1.35882603       0.00000000
Si      -1.35754344       1.35777150       1.35996683       0.00000000
Si       1.34745993       1.35423657      -1.38519224       0.00000000
Si      -1.33579629      -1.36441782      -1.39302571       0.00000000
Si       2.71609686      -2.71261080       0.00200503       0.00000000
Si       2.55505392      -0.17114274      -2.86071823       0.00000000
Si      -2.71531494      -2.71459818      -0.00428663       0.00000000
Si      -2.71601541       2.71497285      -0.00276557       0.00000000
Si       0.00021177      -2.71476108       2.71640756       0.00000000
Si       2.71696023       2.71469592      -0.00345696       0.00000000
