10
Lattice="16.28999089631971 0.0 0.0 0.0 16.28999089631971 0.0 0.0 0.0 34.56954931742767" Properties=species:S:1:pos:R:3:initial_magmoms:R:1 pbc="T T T"
Si      -0.79853580       1.17620316      -1.82610289       0.00000000
Si      -1.13588541       1.07329923       1.72097684       0.00000000
Si       2.32702650       0.39892581      -0.03045579       0.00000000
Si      -1.09322190      -2.00976246      -0.62256336       0.00000000
Si       2.54231514      -0.33922296      -2.27896424       0.00000000
Si       0.34911099      -3.54310758       0.48687780       0.00000000
Si      -3.15346707       1.33084413      -1.57941445       0.00000000
Si      -1.46326554       3.33148419       1.22867161       0.00000000
Si      -1.26307773      -1.99508517      -3.06490339       0.00000000
Si      -0.20124666       0.78716538       3.80911706       0.00000000
