10
Lattice="16.28999089631971 0.0 0.0 0.0 16.28999089631971 0.0 0.0 0.0 34.56954931742767" Properties=species:S:1:pos:R:3:initial_magmoms:R:1 pbc="T T T"
Si       1.21612995      -1.93608279      -0.49469053       0.00000000
Si       1.65312549       1.18227933       1.28903008       0.00000000
Si      -0.29846538       1.55408229      -1.87612506       0.00000000
Si      -2.47221927      -0.17352108       0.29397961       0.00000000
Si      -0.57531393      -3.34645470      -0.85673762       0.00000000
Si       0.33192504       2.77711920       2.37257863       0.00000000
Si      -2.82089043      -2.42398458      -0.89759885       0.00000000
Si       1.81618839       2.58654249      -2.18808085       0.00000000
Si       3.11293755       2.25800577      -0.17177619       0.00000000
Si      -2.84009634       0.58176477       2.53649132       0.00000000
