10
Lattice="16.28999089631971 0.0 0.0 0.0 16.28999089631971 0.0 0.0 0.0 34.56954931742767" Properties=species:S:1:pos:R:3:initial_magmoms:R:1 pbc="T T T"
Si      -1.34530965       1.27580022       1.41895289       0.00000000
Si       1.35964485       1.29337713      -1.41181915       0.00000000
Si      -1.81237653      -0.90197730      -1.24790646       0.00000000
Si       1.36448298      -1.45896498       1.39311213       0.00000000
Si       2.68084530      -0.30146274      -2.49536771       0.00000000
Si      -2.68017741       2.62528011      -0.02027505       0.00000000
Si      -2.62637154      -2.74053186      -0.02393251       0.00000000
Si       0.01528002       2.61664641       2.78469975       0.00000000
Si       2.72534958       2.72367171       0.03856927       0.00000000
Si      -2.69899236      -0.09822870       2.77553881       0.00000000
