10
Lattice="16.28999089631971 0.0 0.0 0.0 16.28999089631971 0.0 0.0 0.0 34.56954931742767" Properties=species:S:1:pos:R:3:initial_magmoms:R:1 pbc="T T T"
Si      -2.08524447       1.04517455      -0.17308983       0.00000000
Si      -0.34877053      -0.92470415       2.17636176       0.00000000
Si       0.03709722      -1.80381029      -1.58411591       0.00000000
Si       1.95730540       1.36877377      -0.54913760       0.00000000
Si       1.76088058       0.88648551      -2.93084260       0.00000000
Si      -1.89434196       2.57773449      -1.89292587       0.00000000
Si       1.02734188      -3.56689328      -0.43142822       0.00000000
Si       2.25650383      -1.41943145      -2.68636661       0.00000000
Si      -3.79709541      -0.58147385       0.26127680       0.00000000
Si      -2.34059022       2.76195810       1.39090659       0.00000000
