10
Lattice="16.28999089631971 0.0 0.0 0.0 16.28999089631971 0.0 0.0 0.0 34.56954931742767" Properties=species:S:1:pos:R:3:initial_magmoms:R:1 pbc="T T T"
Si      -1.35801585      -1.35695700      -1.35702842       0.00000000
Si       1.35720135       1.35795072      -1.35761610       0.00000000
Si       1.35689184      -1.36114353       1.35699385       0.00000000
Si      -1.36044306       1.36025726       1.36020882       0.00000000
Si       2.71437012      -2.71293660       0.00003457       0.00000000
Si      -0.00105885      -2.71438641      -2.71471366       0.00000000
Si       2.71417464       0.00052128      -2.71502478       0.00000000
Si      -0.00057015       2.71541824      -2.71467909       0.00000000
Si      -2.71552671       0.00029322      -2.71460995       0.00000000
Si      -2.71570590      -2.71489140       0.00038027       0.00000000
