10
Lattice="16.28999089631971 0.0 0.0 0.0 16.28999089631971 0.0 0.0 0.0 34.56954931742767" Properties=species:S:1:pos:R:3:initial_magmoms:R:1 pbc="T T T"
Si      -1.61440416       0.96715359       1.40400846       0.00000000
Si       1.10227914       1.34181090      -1.60406255       0.00000000
Si       0.96733278       0.71298072       2.29956771       0.00000000
Si      -1.55202975      -1.34904006      -1.62895264       0.00000000
Si       2.25549711       3.01017113      -0.31102241       0.00000000
Si      -2.73986397      -0.82375272       2.51386446       0.00000000
Si       2.42556471      -0.05323572      -3.02144944       0.00000000
Si      -2.96121249       2.58115769      -0.23866830       0.00000000
Si      -0.30069711       2.67922186      -3.01940983       0.00000000
Si      -0.91551429      -2.15462943       3.31453024       0.00000000
