10
Lattice="16.28999089631971 0.0 0.0 0.0 16.28999089631971 0.0 0.0 0.0 34.56954931742767" Properties=species:S:1:pos:R:3:initial_magmoms:R:1 pbc="T T T"
Si      -1.01726163      -1.43527932       1.60312918       0.00000000
Si      -0.28416276       1.85859030       1.47332045       0.00000000
Si       2.47588452      -0.28580805       0.00449404       0.00000000
Si      -1.92800295       0.17707230      -1.60302547       0.00000000
Si      -0.57938643       0.26064000       3.26053257       0.00000000
Si       0.84828546      -2.09710944      -2.78160577       0.00000000
Si       2.78650224      -0.95610897      -2.21106961       0.00000000
Si      -2.22720138       2.96527752       0.53420354       0.00000000
Si      -3.15716490      -1.97038953       0.65191293       0.00000000
Si      -0.97606422      -0.76623273      -3.58227155       0.00000000
