10
Lattice="16.28999089631971 0.0 0.0 0.0 16.28999089631971 0.0 0.0 0.0 34.56954931742767" Properties=species:S:1:pos:R:3:initial_magmoms:R:1 pbc="T T T"
Si       1.93821678       1.14100047       0.57053616       0.00000000
Si      -1.20081735      -1.49345091       1.32996044       0.00000000
Si      -1.82434968       1.33087671      -0.80066578       0.00000000
Si       0.79669503      -2.11483296      -1.06280682       0.00000000
Si      -1.53442026      -2.51473617      -0.82683494       0.00000000
Si       1.88284707       2.86761015      -1.01496254       0.00000000
Si      -0.84828546       2.09710944       2.78160577       0.00000000
Si       1.62759906       1.81130139       2.78609981       0.00000000
Si      -0.69888987       3.12178302      -1.91052178       0.00000000
Si      -2.77628841       2.27418174       1.17858030       0.00000000
