10
Lattice="16.28999089631971 0.0 0.0 0.0 16.28999089631971 0.0 0.0 0.0 34.56954931742767" Properties=species:S:1:pos:R:3:initial_magmoms:R:1 pbc="T T T"
Si      -1.42622208      -1.64571354      -0.80343134       0.00000000
Si       1.83405852       0.17824518      -1.45631222       0.00000000
Si       0.54662724      -1.38513870       1.84732861       0.00000000
Si      -0.80123994       2.24881821       0.25073308       0.00000000
Si       2.38264056       2.48544675      -1.11217216       0.00000000
Si      -2.28998304       1.99495485       2.04558508       0.00000000
Si       3.19244904      -1.69691301      -0.69332727       0.00000000
Si       2.87220393      -1.69722252       1.60693183       0.00000000
Si       1.25591013       3.42430461       0.73933936       0.00000000
Si      -0.28403244      -3.73031226      -0.77895609       0.00000000
