10
Lattice="16.28999089631971 0.0 0.0 0.0 16.28999089631971 0.0 0.0 0.0 34.56954931742767" Properties=species:S:1:pos:R:3:initial_magmoms:R:1 pbc="T T T"
Si       0.03857472      -1.18301238      -2.01194889       0.00000000
Si       2.11465377       1.03246020      -0.31195579       0.00000000
Si      -1.88701731       1.46295603       0.20807423       0.00000000
Si       0.29846538      -1.55408229       1.87612506       0.00000000
Si      -2.17375389      -1.72760337       2.17010467       0.00000000
Si       2.36415141      -1.49509620      -2.25234567       0.00000000
Si       1.95159087      -0.37180296       3.16515513       0.00000000
Si      -3.57169653       0.22789710       1.36833267       0.00000000
Si       1.76551020       3.27961683      -0.98533641       0.00000000
Si       3.41140293       0.70392348       1.70434887       0.00000000
