10
Lattice="16.28999089631971 0.0 0.0 0.0 16.28999089631971 0.0 0.0 0.0 34.56954931742767" Properties=species:S:1:pos:R:3:initial_magmoms:R:1 pbc="T T T"
Si      -1.70373852      -0.97807766       1.32050906       0.00000000
Si      -0.91124631       0.04619844      -2.20062418       0.00000000
Si       1.06873803       1.75853808       1.25290135       0.00000000
Si       1.80876015      -1.65674350       0.09982163       0.00000000
Si       2.07176220      -1.83972744      -2.19198179       0.00000000
Si      -0.37281294      -2.32429095       2.71127046       0.00000000
Si       2.37891015       0.39907242       2.68160977       0.00000000
Si      -1.33512840      -3.15526616      -1.22088803       0.00000000
Si       0.68716107       1.60059024      -3.28586665       0.00000000
Si      -3.12859224      -2.20502417      -0.08209730       0.00000000
