10
Lattice="16.28999089631971 0.0 0.0 0.0 16.28999089631971 0.0 0.0 0.0 34.56954931742767" Properties=species:S:1:pos:R:3:initial_magmoms:R:1 pbc="T T T"
Si      -2.06208594       0.31369816       1.34810947       0.00000000
Si       1.55049849       1.92642119      -0.40792091       0.00000000
Si       0.55744380      -2.00639925      -1.40898648       0.00000000
Si       1.83348837      -0.18454126       1.73532321       0.00000000
Si      -2.09078892       0.65975966      -1.70130675       0.00000000
Si       0.52665570      -3.26587689       0.73837142       0.00000000
Si      -0.56140227       1.73278196      -3.03669462       0.00000000
Si      -2.88277614       2.13421643       0.00853868       0.00000000
Si       3.32003232       0.64615751      -1.54249415       0.00000000
Si       2.20382523      -0.95653740      -2.92230392       0.00000000
