10
Lattice="16.28999089631971 0.0 0.0 0.0 16.28999089631971 0.0 0.0 0.0 34.56954931742767" Properties=species:S:1:pos:R:3:initial_magmoms:R:1 pbc="T T T"
Si       1.52938665       1.07302230      -1.33538787       0.00000000
Si      -0.79198722       1.47445677       1.70984543       0.00000000
Si      -1.15321797      -1.66836022      -1.29304015       0.00000000
Si       2.09078892      -0.65975966       1.70130675       0.00000000
Si       0.02870298      -0.34606150       3.04941622       0.00000000
Si       0.14662629       2.36916873      -2.71194809       0.00000000
Si      -1.28816433      -2.29719041       2.61059011       0.00000000
Si      -2.55619422      -0.33094927      -2.70838742       0.00000000
Si       2.53640187       2.74727592      -0.07176642       0.00000000
Si       0.69333498       3.47415201       1.26832290       0.00000000
