10
Lattice="16.28999089631971 0.0 0.0 0.0 16.28999089631971 0.0 0.0 0.0 34.56954931742767" Properties=species:S:1:pos:R:3:initial_magmoms:R:1 pbc="T T T"
Si       0.79198722      -1.47445677      -1.70984543       0.00000000
Si       0.82069020      -1.82051827       1.33957078       0.00000000
Si      -2.44133343       0.31371282       0.51519028       0.00000000
Si       1.48532220       1.99969524      -0.44152253       0.00000000
Si      -2.58730812       1.50891012      -1.58110836       0.00000000
Si       2.88277614      -2.13421643      -0.00853868       0.00000000
Si      -0.63993636       2.11467006      -2.94173201       0.00000000
Si       0.78498252      -0.97054191       3.63260484       0.00000000
Si       2.32137387      -0.40143447      -3.04523330       0.00000000
Si      -0.49617711      -3.77164718       0.90074468       0.00000000
