10
Lattice="16.28999089631971 0.0 0.0 0.0 16.28999089631971 0.0 0.0 0.0 34.56954931742767" Properties=species:S:1:pos:R:3:initial_magmoms:R:1 pbc="T T T"
Si      -0.08891082      -2.39142806       0.09402923       0.00000000
Si      -0.05629824       1.40328576       1.95940315       0.00000000
Si      -1.76389749       0.71280153      -1.48289622       0.00000000
Si       1.89462474       1.06230348      -1.07715319       0.00000000
Si      -1.29599982       3.01754331      -1.28439775       0.00000000
Si      -1.54207656       3.00949605       1.07255544       0.00000000
Si       0.92874177      -2.73824216       2.22863095       0.00000000
Si       0.94314213       3.08493504      -1.87035194       0.00000000
Si       0.66490893      -1.60934286      -3.37786169       0.00000000
Si      -1.34680833      -0.38722959      -3.55599868       0.00000000
