10
Lattice="16.28999089631971 0.0 0.0 0.0 16.28999089631971 0.0 0.0 0.0 34.56954931742767" Properties=species:S:1:pos:R:3:initial_magmoms:R:1 pbc="T T T"
Si      -1.35570267       1.35685926      -1.36262869       0.00000000
Si       1.35979146      -1.36086660      -1.36235213       0.00000000
Si       1.36001952       1.36581876       1.37030313       0.00000000
Si      -1.37150397      -1.36337526       1.37203161       0.00000000
Si       0.01125639      -2.65952169       2.74859183       0.00000000
Si      -2.71308321       2.71448415      -0.00255815       0.00000000
Si      -2.71202436      -2.71614573      -0.00203960       0.00000000
Si       2.71533123       2.71464705      -0.00338782       0.00000000
Si       2.71521720      -2.71572219      -0.00235073       0.00000000
Si      -2.71308321      -0.00177561      -2.71868916       0.00000000
