10
Lattice="16.28999089631971 0.0 0.0 0.0 16.28999089631971 0.0 0.0 0.0 34.56954931742767" Properties=species:S:1:pos:R:3:initial_magmoms:R:1 pbc="T T T"
Si       1.10488554      -1.48061439       1.36515227       0.00000000
Si      -1.00701522      -1.67425362      -1.26362144       0.00000000
Si       1.71875790       1.08747153      -1.18545965       0.00000000
Si      -1.84306689       0.72687609       1.34008933       0.00000000
Si       1.69881894       0.25992324       2.99192703       0.00000000
Si       0.34174791       2.35108683      -2.64191014       0.00000000
Si      -2.38977558      -0.37810719      -2.64018167       0.00000000
Si      -2.79446805       2.45298078       0.11432156       0.00000000
Si      -2.53640187      -2.74727592       0.07176642       0.00000000
Si      -0.44561295      -3.40703558       1.77307318       0.00000000
