10
Lattice="16.28999089631971 0.0 0.0 0.0 16.28999089631971 0.0 0.0 0.0 34.56954931742767" Properties=species:S:1:pos:R:3:initial_magmoms:R:1 pbc="T T T"
Si       1.19744532       1.57789827       1.34209575       0.00000000
Si      -1.69930764      -1.25203311       1.15143420       0.00000000
Si      -1.59053931       1.43084844      -1.26151965       0.00000000
Si       1.88695215      -1.81214847      -0.35635007       0.00000000
Si       1.73452662       1.23318558      -2.10954574       0.00000000
Si      -0.20095344      -2.42859465       2.64973116       0.00000000
Si       2.54106081       0.26717229       2.67141665       0.00000000
Si      -0.13072725       2.50657488      -2.72232591       0.00000000
Si       3.01969359       2.43714690      -0.07626742       0.00000000
Si      -2.90690163       0.27334620       2.62696019       0.00000000
