10
Lattice="16.28999089631971 0.0 0.0 0.0 16.28999089631971 0.0 0.0 0.0 34.56954931742767" Properties=species:S:1:pos:R:3:initial_magmoms:R:1 pbc="T T T"
Si       1.35319401      -1.35469269      -1.35540365       0.00000000
Si       1.35552348       1.35762489       1.35682100       0.00000000
Si      -1.35904212      -1.35708732       1.35675186       0.00000000
Si      -1.35777150       1.35751086      -1.36335465       0.00000000
Si       2.72069064      -0.00912240      -2.70063347       0.00000000
Si       2.71187775      -2.71451673      -0.00020742       0.00000000
Si       2.71278999       0.00071676       2.71419511       0.00000000
Si      -0.02132361      -2.70488934      -2.72231896       0.00000000
Si      -0.00205254      -2.71404432       2.71440253       0.00000000
Si       2.71362078       2.71595025      -0.00082967       0.00000000
