10
Lattice="16.28999089631971 0.0 0.0 0.0 16.28999089631971 0.0 0.0 0.0 34.56954931742767" Properties=species:S:1:pos:R:3:initial_magmoms:R:1 pbc="T T T"
Si      -0.92771860       1.90623951       1.26438197       0.00000000
Si       1.67471789      -1.00662426       1.51490764       0.00000000
Si       0.94284076       0.20691558      -2.34879477       0.00000000
Si      -1.81890786      -1.76138883      -0.22297372       0.00000000
Si       0.87649160       2.52390744      -2.02435937       0.00000000
Si      -1.12115829       3.23569899      -0.85490543       0.00000000
Si       0.29332589      -2.34762195       2.82151776       0.00000000
Si      -2.36149518       0.58152042       2.78628100       0.00000000
Si       2.45227217      -2.82783486       0.08853267       0.00000000
Si      -3.57332457      -0.81865395       1.29639339       0.00000000
