10
Lattice="16.28999089631971 0.0 0.0 0.0 16.28999089631971 0.0 0.0 0.0 34.56954931742767" Properties=species:S:1:pos:R:3:initial_magmoms:R:1 pbc="T T T"
Si      -1.83405852      -0.17824518       1.45631222       0.00000000
Si      -0.12603573      -0.03231936      -2.37686526       0.00000000
Si       0.54858204       2.30720157       0.34414006       0.00000000
Si       1.35839052      -1.87515819       0.76298495       0.00000000
Si       2.23594911       0.28696464      -2.66479520       0.00000000
Si       3.49265745       0.36097011      -0.65322657       0.00000000
Si       2.83630077       2.22788556       0.62118058       0.00000000
Si       1.03814541      -1.87546770       3.06324405       0.00000000
Si      -2.63529846       2.07057303       1.70704530       0.00000000
Si      -3.26028060      -1.82395872       0.65288087       0.00000000
