10
Lattice="16.28999089631971 0.0 0.0 0.0 16.28999089631971 0.0 0.0 0.0 34.56954931742767" Properties=species:S:1:pos:R:3:initial_magmoms:R:1 pbc="T T T"
Si       1.79010810      -0.77372613      -1.33936337       0.00000000
Si      -0.34914357       2.24715663      -0.67338063       0.00000000
Si      -2.11465377      -1.03246020       0.31195579       0.00000000
Si       1.29674916      -0.32853672       2.01630466       0.00000000
Si       0.24949764      -2.52755640      -1.94038989       0.00000000
Si       2.42173656       1.69754832       1.71845326       0.00000000
Si       1.96079472       2.78746335      -0.49707583       0.00000000
Si      -2.07607905      -2.21547258      -1.69999311       0.00000000
Si      -1.41444441       3.20525854       1.18590905       0.00000000
Si       2.73885399       1.31528718      -2.17629262       0.00000000
