10
Lattice="16.28999089631971 0.0 0.0 0.0 16.28999089631971 0.0 0.0 0.0 34.56954931742767" Properties=species:S:1:pos:R:3:initial_magmoms:R:1 pbc="T T T"
Si      -1.35741312       1.35706451       1.36307809       0.00000000
Si       1.35898289      -1.35817073       1.36228299       0.00000000
Si       1.36070242       1.35177026      -1.38364353       0.00000000
Si      -1.35338949      -1.36166222      -1.39595375       0.00000000
Si       2.71431703       2.71205042       0.00207417       0.00000000
Si      -2.71453302      -2.71752779       0.00241987       0.00000000
Si      -2.71878471       2.71332104       0.00532371       0.00000000
Si       0.00000000       2.71369571       2.72014108       0.00000000
Si       2.71483994      -2.71946630       0.00466689       0.00000000
Si       2.71472754      -0.00129343       2.71989909       0.00000000
