10
Lattice="16.28999089631971 0.0 0.0 0.0 16.28999089631971 0.0 0.0 0.0 34.56954931742767" Properties=species:S:1:pos:R:3:initial_magmoms:R:1 pbc="T T T"
Si      -1.35542574       1.35485559      -1.36000140       0.00000000
Si       1.35786924      -1.35927018      -1.35996683       0.00000000
Si      -1.35208629      -1.35849478       1.37849612       0.00000000
Si       1.35379674       1.36028016       1.37884181       0.00000000
Si      -2.71386513      -2.71590173       0.00093338       0.00000000
Si      -2.71322982      -0.00162900      -2.71668412       0.00000000
Si       2.71520642       2.71485882      -0.00093338       0.00000000
Si       0.00182448       2.71391400      -2.71682240       0.00000000
Si      -2.71521720       2.71572219       0.00235073       0.00000000
Si       2.71520384      -2.71588130       0.00283470       0.00000000
