10
Lattice="16.28999089631971 0.0 0.0 0.0 16.28999089631971 0.0 0.0 0.0 34.56954931742767" Properties=species:S:1:pos:R:3:initial_magmoms:R:1 pbc="T T T"
Si      -0.19090251      -1.53255994       1.71983604       0.00000000
Si      -2.08402857       0.10036269      -1.06902934       0.00000000
Si       1.37841323      -1.02001464      -1.68277746       0.00000000
Si       0.59859234       2.32603281       0.24589334       0.00000000
Si      -0.44624826       0.18422361       3.28383246       0.00000000
Si       0.27246654       2.55981060      -2.12277893       0.00000000
Si       1.92849069       1.06168446      -2.84396927       0.00000000
Si      -2.26756800      -1.95084805      -2.16094374       0.00000000
Si       1.89434196      -2.57773449       1.89292587       0.00000000
Si      -1.95662448       1.90065204      -2.67741309       0.00000000
