10
Lattice="16.28999089631971 0.0 0.0 0.0 16.28999089631971 0.0 0.0 0.0 34.56954931742767" Properties=species:S:1:pos:R:3:initial_magmoms:R:1 pbc="T T T"
Si      -0.18353943      -2.05121074      -1.09191439       0.00000000
Si       2.08402857      -0.10036269       1.06902934       0.00000000
Si      -2.11610358       0.69918309       0.78687252       0.00000000
Si       0.12740409       1.80028935      -1.60838375       0.00000000
Si      -0.46652931       0.05975172      -3.23515851       0.00000000
Si      -1.69989408       2.84789925      -0.32647501       0.00000000
Si       2.35649511       2.45944791      -1.05374959       0.00000000
Si       3.46244180      -1.12037733      -0.61374812       0.00000000
Si       1.90381230      -2.23923317      -2.27208490       0.00000000
Si       2.68262091       2.22567012       1.31492268       0.00000000
