10
Lattice="16.28999089631971 0.0 0.0 0.0 16.28999089631971 0.0 0.0 0.0 34.56954931742767" Properties=species:S:1:pos:R:3:initial_magmoms:R:1 pbc="T T T"
Si       0.08873163      -0.46514466      -2.25199998       0.00000000
Si       0.23817609      -2.02443975       1.17076758       0.00000000
Si      -2.15099676       0.84618405       0.46188401       0.00000000
Si       1.57889196       1.74951342       0.27403297       0.00000000
Si      -1.13898051      -1.24768368       2.94895705       0.00000000
Si       1.60236585       2.04224472       2.66113082       0.00000000
Si       2.61273681      -2.27253645       1.38973123       0.00000000
Si      -2.16106398      -0.85232538      -2.94387533       0.00000000
Si       1.03506660       1.36580247      -3.41761669       0.00000000
Si       3.63029166       1.18820889      -0.67338063       0.00000000
