10
Lattice="16.28999089631971 0.0 0.0 0.0 16.28999089631971 0.0 0.0 0.0 34.56954931742767" Properties=species:S:1:pos:R:3:initial_magmoms:R:1 pbc="T T T"
Si       1.35619137      -1.35672894       1.35965570       0.00000000
Si      -1.34521191      -1.35187452      -1.37558190       0.00000000
Si      -1.35902583       1.35834165       1.35937915       0.00000000
Si       1.35037579       1.35682668      -1.39840819       0.00000000
Si      -2.64961737       0.13374090      -2.74421878       0.00000000
Si       2.71400752      -2.71564074      -0.00141735       0.00000000
Si      -0.00030951      -2.71399545       2.71664955       0.00000000
Si       2.71440337       0.00050499       2.71658041       0.00000000
Si       2.71174973       2.71950147      -0.00207417       0.00000000
Si      -2.71593396       0.00117288       2.71658041       0.00000000
