10
Lattice="16.28999089631971 0.0 0.0 0.0 16.28999089631971 0.0 0.0 0.0 34.56954931742767" Properties=species:S:1:pos:R:3:initial_magmoms:R:1 pbc="T T T"
Si      -1.35379674      -1.36028016      -1.37884181       0.00000000
Si       1.36140968       1.35457866      -1.37977519       0.00000000
Si       1.45622079      -1.23965271       1.44766983       0.00000000
Si      -1.33198443       1.45764549       1.45026254       0.00000000
Si      -0.17632296      -2.39070411       2.86630121       0.00000000
Si       0.56049003       2.37329010       2.86294797       0.00000000
Si       2.22654882       0.46551933       3.00817472       0.00000000
Si      -2.70588303      -2.71877494      -0.00034570       0.00000000
Si       2.71982305       2.71029762      -0.00480517       0.00000000
Si      -2.70899442       2.72126079      -0.00618795       0.00000000
