10
Lattice="16.28999089631971 0.0 0.0 0.0 16.28999089631971 0.0 0.0 0.0 34.56954931742767" Properties=species:S:1:pos:R:3:initial_magmoms:R:1 pbc="T T T"
Si      -1.35497513       1.35576783      -1.35848034       0.00000000
Si       1.35800775      -1.35946566      -1.35834206       0.00000000
Si       1.35841337       1.35571896       1.37497002       0.00000000
Si      -1.36140968      -1.35457866       1.37977519       0.00000000
Si       0.09481110      -2.59423137       2.82744502       0.00000000
Si      -2.71338194      -0.00094482      -2.71588902       0.00000000
Si       0.00125928       2.71376739      -2.71578531       0.00000000
Si      -2.71520642      -2.71485882       0.00093338       0.00000000
Si      -2.71509239       2.71551042      -0.00010371       0.00000000
Si       2.72056199       2.71060713      -0.00065682       0.00000000
