10
Lattice="16.28999089631971 0.0 0.0 0.0 16.28999089631971 0.0 0.0 0.0 34.56954931742767" Properties=species:S:1:pos:R:3:initial_magmoms:R:1 pbc="T T T"
Si       1.34361549      -1.31072598       1.32932091       0.00000000
Si      -1.37779191       1.43180955       1.29968096       0.00000000
Si      -1.19744532      -1.57789827      -1.34209575       0.00000000
Si       1.82224827       0.85924863      -1.41836317       0.00000000
Si       0.53708130      -0.34471269      -3.45164149       0.00000000
Si       2.55459780      -2.62674621      -0.21182849       0.00000000
Si      -0.02388114      -2.65629627       2.67455073       0.00000000
Si       2.69404020       0.05536971       2.66836278       0.00000000
Si      -2.78798463      -0.14704983      -2.60361540       0.00000000
Si      -2.73484665       0.05590728       2.66659973       0.00000000
