10
Lattice="16.28999089631971 0.0 0.0 0.0 16.28999089631971 0.0 0.0 0.0 34.56954931742767" Properties=species:S:1:pos:R:3:initial_magmoms:R:1 pbc="T T T"
Si      -1.34827443      -1.34993601      -1.37172048       0.00000000
Si       1.37054286       1.36427121      -1.37057969       0.00000000
Si      -1.43029458       1.21881780       1.45689990       0.00000000
Si       1.35725022      -1.35713619       1.40380104       0.00000000
Si       0.00742824       2.34751932       2.90107820       0.00000000
Si      -2.70358614      -2.69876430       0.00197047       0.00000000
Si      -2.69022834       2.72433960       0.01009431       0.00000000
Si      -2.70251100       0.00690696      -2.73009711       0.00000000
Si       2.72523133      -2.70972747       0.00335325       0.00000000
Si       2.71131967       2.72639214      -0.01299816       0.00000000
