10
Lattice="16.28999089631971 0.0 0.0 0.0 16.28999089631971 0.0 0.0 0.0 34.56954931742767" Properties=species:S:1:pos:R:3:initial_magmoms:R:1 pbc="T T T"
Si      -0.14310765       1.56076119       1.78579478       0.00000000
Si      -2.19157515      -0.88801677      -0.27099085       0.00000000
Si       1.42633611      -1.82814525       0.58802836       0.00000000
Si       0.73632429       1.67987367      -1.57260425       0.00000000
Si       2.73487013      -0.50194377       2.01402307       0.00000000
Si      -2.02725792      -1.31997870      -2.53474448       0.00000000
Si      -2.19208014       0.94410324       2.66825216       0.00000000
Si      -3.44878848       0.87009777       0.65668353       0.00000000
Si      -1.41214752       2.91781593      -2.03189554       0.00000000
Si       1.70536752       1.23318558       3.21113266       0.00000000
