10
Lattice="16.28999089631971 0.0 0.0 0.0 16.28999089631971 0.0 0.0 0.0 34.56954931742767" Properties=species:S:1:pos:R:3:initial_magmoms:R:1 pbc="T T T"
Si       1.30853402       1.32620148       1.42599471       0.00000000
Si       1.53689864      -0.79837290      -1.63220218       0.00000000
Si      -1.42633611       1.82814525      -0.58802836       0.00000000
Si      -0.93188574      -1.95439275       1.07597782       0.00000000
Si       2.51671445       2.59652826      -0.14533047       0.00000000
Si       2.96641619       1.13099841      -2.00220028       0.00000000
Si       2.75378282      -2.52783333      -0.34534999       0.00000000
Si       3.00650588       0.03787425       2.34236483       0.00000000
Si      -3.61791126       0.94012848      -0.85901921       0.00000000
Si      -3.03134094      -1.35303111       1.93354511       0.00000000
