10
Lattice="16.28999089631971 0.0 0.0 0.0 16.28999089631971 0.0 0.0 0.0 34.56954931742767" Properties=species:S:1:pos:R:3:initial_magmoms:R:1 pbc="T T T"
Si      -2.32112952      -0.06716367      -0.13755231       0.00000000
Si       0.74181402       2.16896463      -0.47436362       0.00000000
Si       0.88787016      -1.37500632      -1.72273988       0.00000000
Si       1.05077016      -0.74961693       2.05488430       0.00000000
Si       3.34668276      -0.27318330       1.30054174       0.00000000
Si      -2.70467757       1.70961921      -1.68955310       0.00000000
Si       1.68853995       1.94214267      -2.62974166       0.00000000
Si       1.40252013      -3.40327422      -0.51041968       0.00000000
Si      -2.80978065      -2.13522804      -1.18186441       0.00000000
Si      -1.16406711       3.46344948      -1.08852658       0.00000000
