10
Lattice="16.28999089631971 0.0 0.0 0.0 16.28999089631971 0.0 0.0 0.0 34.56954931742767" Properties=species:S:1:pos:R:3:initial_magmoms:R:1 pbc="T T T"
Si       1.86509097       0.76330053       1.48661732       0.00000000
Si      -0.64529577      -1.85067432       1.62459484       0.00000000
Si      -1.88695215       1.81214847       0.35635007       0.00000000
Si       0.69051681      -0.33953247      -2.57823300       0.00000000
Si      -0.15242553       3.04533405      -1.75319567       0.00000000
Si      -2.08790559      -0.61644618       3.00608123       0.00000000
Si       0.65410866       2.07932076       3.02776672       0.00000000
Si      -2.06475750      -3.17785320       0.24319692       0.00000000
Si      -0.68950683       3.39004674       1.69844581       0.00000000
Si      -3.58625979       0.56011536       1.50778427       0.00000000
