10
Lattice="16.28999089631971 0.0 0.0 0.0 16.28999089631971 0.0 0.0 0.0 34.56954931742767" Properties=species:S:1:pos:R:3:initial_magmoms:R:1 pbc="T T T"
Si       1.35606105      -1.35795069       1.35865319       0.00000000
Si       1.35711990       1.35774572      -1.35782352       0.00000000
Si      -1.35770634      -1.35728280      -1.35796180       0.00000000
Si      -1.35837423       1.35818559       1.35962113       0.00000000
Si       2.71336014       2.71481714      -0.00127907       0.00000000
Si      -2.71528236      -2.71313208      -0.00069139       0.00000000
Si       2.71505430      -2.71344159      -0.00089881       0.00000000
Si      -0.00009774      -2.71516833      -2.71554333       0.00000000
Si       2.71547784       0.00008145      -2.71550876       0.00000000
Si      -2.71547784       0.00032580      -2.71575074       0.00000000
