10
Lattice="16.28999089631971 0.0 0.0 0.0 16.28999089631971 0.0 0.0 0.0 34.56954931742767" Properties=species:S:1:pos:R:3:initial_magmoms:R:1 pbc="T T T"
Si       1.34241003       1.35330804      -1.38081228       0.00000000
Si      -1.37367054      -1.35925389      -1.37673307       0.00000000
Si      -1.26830682       1.44197451       1.47186852       0.00000000
Si       1.25993376      -1.50552180       1.44680559       0.00000000
Si      -2.15098047      -0.43067502       2.82820555       0.00000000
Si      -0.48505104      -2.44108908       2.78136378       0.00000000
Si       2.70164763       2.70949941       0.00698305       0.00000000
Si       2.69022834      -2.72433960      -0.01009431       0.00000000
Si      -2.72143998       2.70511740      -0.00487431       0.00000000
Si       2.70140328      -0.00218286      -2.74036428       0.00000000
