10
Lattice="16.28999089631971 0.0 0.0 0.0 16.28999089631971 0.0 0.0 0.0 34.56954931742767" Properties=species:S:1:pos:R:3:initial_magmoms:R:1 pbc="T T T"
Si       1.35539609       1.35996533      -1.38492606       0.00000000
Si      -1.35923760      -1.35619137      -1.38779533       0.00000000
Si      -1.29854106       1.44272778       1.47757250       0.00000000
Si       1.28559051      -1.49450976       1.44041022       0.00000000
Si       2.69990038      -2.70744687      -0.03007552       0.00000000
Si      -2.70164763      -2.70949941      -0.00698305       0.00000000
Si      -2.71189404       2.71735186      -0.00926464       0.00000000
Si       2.72249950       2.70943003      -0.00127907       0.00000000
Si      -0.00024435      -2.71168227      -2.74734733       0.00000000
Si       2.71505823       0.00244350      -2.74665594       0.00000000
