10
Lattice="16.28999089631971 0.0 0.0 0.0 16.28999089631971 0.0 0.0 0.0 34.56954931742767" Properties=species:S:1:pos:R:3:initial_magmoms:R:1 pbc="T T T"
Si      -1.13836149       0.97693641       1.77587331       0.00000000
Si       1.71185094       1.62664839      -0.43436663       0.00000000
Si       0.73827909      -2.19304125       0.65039186       0.00000000
Si      -1.92542913      -0.71490294      -1.27547880       0.00000000
Si      -0.53076078      -0.83598651      -3.16729845       0.00000000
Si      -1.31069340      -2.80969920       1.53284924       0.00000000
Si      -1.96705008      -0.94278375       2.80725639       0.00000000
Si       0.32459454       2.32043624       2.92793875       0.00000000
Si       1.61771103      -2.07392877      -2.70800716       0.00000000
Si       1.45650519       3.34343195       1.12962979       0.00000000
