10
Lattice="16.28999089631971 0.0 0.0 0.0 16.28999089631971 0.0 0.0 0.0 34.56954931742767" Properties=species:S:1:pos:R:3:initial_magmoms:R:1 pbc="T T T"
Si       1.02271878      -2.04009444      -0.59466572       0.00000000
Si       0.77789637       0.76492953       2.10383481       0.00000000
Si      -2.35237374      -0.30257046       0.05894111       0.00000000
Si       0.92971917       1.68198227      -1.42644411       0.00000000
Si       2.83938188      -1.87830216       1.03121023       0.00000000
Si       1.51022961      -1.61989389      -2.87874626       0.00000000
Si      -3.04357473      -0.04206078      -2.14721962       0.00000000
Si      -3.13043301       1.16960571       1.73815791       0.00000000
Si       3.01472418       0.12336417       2.32425038       0.00000000
Si      -0.75193011       3.22115921      -2.02653725       0.00000000
