10
Lattice="16.28999089631971 0.0 0.0 0.0 16.28999089631971 0.0 0.0 0.0 34.56954931742767" Properties=species:S:1:pos:R:3:initial_magmoms:R:1 pbc="T T T"
Si      -2.09488260       0.20430918       1.02775328       0.00000000
Si       1.05332769      -2.09064231       0.50108590       0.00000000
Si       0.04083903       0.02171457      -2.40127138       0.00000000
Si       0.87988806       1.96444368       1.10698673       0.00000000
Si       3.25426959      -1.35231435       0.35018973       0.00000000
Si      -1.60658496      -0.38310822       3.25026541       0.00000000
Si      -0.86082876       3.52484649       0.84857920       0.00000000
Si      -0.48503475      -2.24929062      -3.02193341       0.00000000
Si       2.27276451       0.36645984      -3.10538435       0.00000000
Si       0.79120530      -3.54867876      -1.40546038       0.00000000
