10
Lattice="16.28999089631971 0.0 0.0 0.0 16.28999089631971 0.0 0.0 0.0 34.56954931742767" Properties=species:S:1:pos:R:3:initial_magmoms:R:1 pbc="T T T"
Si       0.06634917      -2.31699186      -0.32443540       0.00000000
Si      -0.48829764       0.58741740      -2.22251214       0.00000000
Si      -1.99764989       0.71179155       1.16945394       0.00000000
Si       1.74876408       0.84760128       1.65007465       0.00000000
Si      -0.87649160      -2.52390744       2.02435937       0.00000000
Si       2.41246755      -2.61778671      -0.53824818       0.00000000
Si      -2.30831648       2.81553102      -0.02091459       0.00000000
Si       1.60658496       0.38310822      -3.25026541       0.00000000
Si      -2.20107941      -0.87586443      -2.77928961       0.00000000
Si      -1.33168632       2.75142987      -2.23516460       0.00000000
