10
Lattice="16.28999089631971 0.0 0.0 0.0 16.28999089631971 0.0 0.0 0.0 34.56954931742767" Properties=species:S:1:pos:R:3:initial_magmoms:R:1 pbc="T T T"
Si      -2.03129199       1.26384336       0.02903844       0.00000000
Si       1.39077178       1.08636381      -1.64976352       0.00000000
Si      -1.32303959      -1.39735620      -1.50125266       0.00000000
Si       1.02256891      -0.40399200       2.29213525       0.00000000
Si      -1.97067690      -2.62726749       0.45735539       0.00000000
Si       3.04389727      -1.57991823      -0.11134858       0.00000000
Si      -1.09069043       3.23320662      -0.77148906       0.00000000
Si      -0.40694863      -2.33336331       2.66213334       0.00000000
Si       2.75396785       2.26569465      -0.08517942       0.00000000
Si      -0.04882113       2.69291619      -2.79615956       0.00000000
