10
Lattice="16.28999089631971 0.0 0.0 0.0 16.28999089631971 0.0 0.0 0.0 34.56954931742767" Properties=species:S:1:pos:R:3:initial_magmoms:R:1 pbc="T T T"
Si       1.35627462       1.35669636       1.35740868       0.00000000
Si       1.35726994      -1.35742941      -1.35754696       0.00000000
Si      -1.35745761       1.35755973      -1.35730497       0.00000000
Si      -1.35907032      -1.35796698       1.35671729       0.00000000
Si      -0.00095673       2.71482624      -2.71429882       0.00000000
Si      -2.71487073       0.00092853      -2.71436796       0.00000000
Si       0.00152529      -2.71430672      -2.71516306       0.00000000
Si       2.71469120       0.00055386      -2.71499021       0.00000000
Si       2.71495184       2.71500543      -0.00010371       0.00000000
Si       2.71527764      -2.71479528      -0.00013828       0.00000000
