10
Lattice="16.28999089631971 0.0 0.0 0.0 16.28999089631971 0.0 0.0 0.0 34.56954931742767" Properties=species:S:1:pos:R:3:initial_magmoms:R:1 pbc="T T T"
Si       1.35771611      -1.35250983       1.35785809       0.00000000
Si       1.35664097       1.34964989      -1.36819784       0.00000000
Si      -1.35585705       1.36129557       1.35761610       0.00000000
Si      -1.33812317      -1.34477208      -1.39428750       0.00000000
Si      -0.00727186       2.58141344      -2.83577283       0.00000000
Si       2.71380974      -2.71218726      -0.00425206       0.00000000
Si       0.00017593      -2.71173114       2.71523220       0.00000000
Si      -2.71431866      -2.71300176      -0.00318040       0.00000000
Si      -2.71433495       0.00289962       2.71526677       0.00000000
Si       2.71499891       0.00291591       2.71543962       0.00000000
