10
Lattice="16.28999089631971 0.0 0.0 0.0 16.28999089631971 0.0 0.0 0.0 34.56954931742767" Properties=species:S:1:pos:R:3:initial_magmoms:R:1 pbc="T T T"
Si      -1.34077681      -1.36212093      -1.35758153       0.00000000
Si       1.33048086      -1.41408603       1.32214772       0.00000000
Si       1.37511546       1.35117405      -1.35709756       0.00000000
Si      -1.41430987       1.21293711       1.47048574       0.00000000
Si       0.19878524       2.35976940       2.84255192       0.00000000
Si      -2.69990038       2.70744687       0.03007552       0.00000000
Si      -2.70014473      -0.00423540      -2.71727180       0.00000000
Si       0.01515785       2.70989037      -2.71658041       0.00000000
Si       2.72500260       2.71217097       0.01928982       0.00000000
Si      -2.71131967      -2.72639214       0.01299816       0.00000000
