10
Lattice="16.28999089631971 0.0 0.0 0.0 16.28999089631971 0.0 0.0 0.0 34.56954931742767" Properties=species:S:1:pos:R:3:initial_magmoms:R:1 pbc="T T T"
Si       1.98180719      -0.20202858       1.19814668       0.00000000
Si      -0.86157063      -2.17738656       0.16064479       0.00000000
Si       0.34877053       0.92470415      -2.17636176       0.00000000
Si      -1.44208107       1.12448960       1.61294693       0.00000000
Si      -2.71004580      -1.84981095      -1.26469310       0.00000000
Si      -1.73647395       1.96987869      -2.34945159       0.00000000
Si       0.06496452       2.79703277       2.31609196       0.00000000
Si       2.17837862       1.82089524       2.40137509       0.00000000
Si      -1.34908146      -2.59758711       2.44472532       0.00000000
Si       0.38586775      -0.87910614      -3.76047768       0.00000000
