10
Lattice="16.28999089631971 0.0 0.0 0.0 16.28999089631971 0.0 0.0 0.0 34.56954931742767" Properties=species:S:1:pos:R:3:initial_magmoms:R:1 pbc="T T T"
Si       1.97208369      -0.20913102      -1.19731701       0.00000000
Si      -1.98180719       0.20202858      -1.19814668       0.00000000
Si       0.19657143       2.02292382       1.20322841       0.00000000
Si       0.25814763      -1.95387147       1.38050115       0.00000000
Si       1.93246641      -0.80870076       2.57474147       0.00000000
Si       0.52157322       0.96563017       3.26070542       0.00000000
Si       3.42120951      -0.55483740       0.77988947       0.00000000
Si      -2.84337782      -1.97535798      -1.03750189       0.00000000
Si      -3.42388826       1.32651818       0.41480025       0.00000000
Si      -1.91684267       2.99906135       1.11794528       0.00000000
