10
Lattice="16.28999089631971 0.0 0.0 0.0 16.28999089631971 0.0 0.0 0.0 34.281931910070035" Properties=species:S:1:pos:R:3:initial_magmoms:R:1 pbc="T T T"
Si       1.35697329      -1.35692279      -1.35708532       0.00000000
Si      -1.35656604      -1.35731864       1.35780524       0.00000000
Si      -1.35734796       1.35749457      -1.35756526       0.00000000
Si       1.35861858       1.35861858       1.35718816       0.00000000
Si       2.70848943       0.00286704       2.71701603       0.00000000
Si      -0.00184077      -2.71395723       2.71519909       0.00000000
Si       0.00161271      -2.71483360      -2.71468486       0.00000000
Si       2.71466334      -2.71499416      -0.00030854       0.00000000
Si       2.71427238       2.71562445       0.00023997       0.00000000
Si       2.71676475      -0.00034209      -2.71324502       0.00000000
