10
Lattice="16.28999089631971 0.0 0.0 0.0 16.28999089631971 0.0 0.0 0.0 34.281931910070035" Properties=species:S:1:pos:R:3:initial_magmoms:R:1 pbc="T T T"
Si       1.55807334      -1.14920737       1.32376326       0.00000000
Si       1.35228177       1.35231109      -1.36579293       0.00000000
Si      -1.35804843      -1.36451318      -1.36760987       0.00000000
Si      -1.25476983       1.41429454       1.49493304       0.00000000
Si      -0.09019773      -2.10506940       2.67714612       0.00000000
Si       0.72135378       2.26549591       2.86576542       0.00000000
Si      -2.70389565       2.71135321       0.02091199       0.00000000
Si      -2.70712107      -2.72001690      -0.02238611       0.00000000
Si       0.00241092       2.70806263      -2.72562080       0.00000000
Si      -2.71277370      -0.00787459      -2.72500373       0.00000000
