10
Lattice="16.28999089631971 0.0 0.0 0.0 16.28999089631971 0.0 0.0 0.0 34.281931910070035" Properties=species:S:1:pos:R:3:initial_magmoms:R:1 pbc="T T T"
Si      -0.40731516      -1.47957183      -1.69771078       0.00000000
Si       1.67485635      -1.05645537       1.22965930       0.00000000
Si       0.64511658       2.07018207      -0.97165334       0.00000000
Si      -1.97118774       0.22827177       1.31351296       0.00000000
Si      -0.17387946       3.24983871       0.85811152       0.00000000
Si       1.03835718       0.01402569       3.23186237       0.00000000
Si      -2.19144483      -0.45968751      -2.72493516       0.00000000
Si       1.45640745      -1.14433992      -3.05009947       0.00000000
Si       1.12257648       2.27602251       2.53813281       0.00000000
Si       1.23535215      -3.33484482       0.72016095       0.00000000
