10
Lattice="16.28999089631971 0.0 0.0 0.0 16.28999089631971 0.0 0.0 0.0 34.281931910070035" Properties=species:S:1:pos:R:3:initial_magmoms:R:1 pbc="T T T"
Si      -1.29419163      -1.27024533      -1.53292228       0.00000000
Si       1.20490614      -1.46329812       1.52792256       0.00000000
Si      -1.52005248       1.23924546       1.52450465       0.00000000
Si       1.27799937       1.74128697      -1.45074844       0.00000000
Si      -2.73316878      -2.63471202       0.10725108       0.00000000
Si       2.62099584      -2.81624778       0.10243447       0.00000000
Si       2.54829357      -0.11310147       2.91531312       0.00000000
Si       2.78031204       2.70907587       0.06253028       0.00000000
Si      -0.16519689       2.60351667       2.91318764       0.00000000
Si      -3.03463152       2.57021991       0.18252054       0.00000000
