10
Lattice="16.28999089631971 0.0 0.0 0.0 16.28999089631971 0.0 0.0 0.0 34.281931910070035" Properties=species:S:1:pos:R:3:initial_magmoms:R:1 pbc="T T T"
Si       1.29419163       1.27024533       1.53292228       0.00000000
Si       1.32076062      -1.34574948      -1.53751122       0.00000000
Si      -0.87951339       1.29435453      -1.91378992       0.00000000
Si      -1.43897715      -1.36446669       1.64017336       0.00000000
Si      -3.21282783       1.11418713      -1.46634189       0.00000000
Si       2.52622062      -2.79686268       0.10130317       0.00000000
Si      -0.54776754      -2.06980740      -3.31005950       0.00000000
Si       2.49909777      -0.19305279       3.06084484       0.00000000
Si       2.57219100       3.01153230       0.08217384       0.00000000
Si      -0.22586085       2.50949079       3.05742693       0.00000000
