10
Lattice="16.28999089631971 0.0 0.0 0.0 16.28999089631971 0.0 0.0 0.0 34.281931910070035" Properties=species:S:1:pos:R:3:initial_magmoms:R:1 pbc="T T T"
Si      -2.33331444      -0.18016740       0.44744803       0.00000000
Si       0.41596515      -1.10216511      -2.08999915       0.00000000
Si       0.35906418       2.37819339      -0.37363898       0.00000000
Si       0.87951339      -1.29435453       1.91378992       0.00000000
Si       2.20027401      -2.64010401       0.37627869       0.00000000
Si       2.54384640      -0.30361302      -2.53391613       0.00000000
Si       0.33174585      -3.36416193      -1.39626959       0.00000000
Si      -1.70712684       3.35233539      -0.00706208       0.00000000
Si      -2.63150289       1.73731221       2.08434262       0.00000000
Si      -0.88049079      -0.12834891      -3.77002044       0.00000000
