10
Lattice="16.28999089631971 0.0 0.0 0.0 16.28999089631971 0.0 0.0 0.0 34.281931910070035" Properties=species:S:1:pos:R:3:initial_magmoms:R:1 pbc="T T T"
Si      -1.32076062       1.34574948       1.53751122       0.00000000
Si       1.20546000      -1.45111320       1.63881439       0.00000000
Si       1.67316219       1.55619999      -1.14045767       0.00000000
Si      -1.86852816      -0.72405792      -1.77254828       0.00000000
Si      -1.78430886       1.53793890      -2.46627784       0.00000000
Si      -2.20027401       2.64010401      -0.37627869       0.00000000
Si       0.34357239       2.33649099      -2.91019483       0.00000000
Si      -0.02656899       2.61599481       3.07043350       0.00000000
Si       2.83092507      -2.82511606       0.55749309       0.00000000
Si       2.59442685      -0.20025297       3.17286797       0.00000000
