10
Lattice="16.28999089631971 0.0 0.0 0.0 16.28999089631971 0.0 0.0 0.0 34.281931910070035" Properties=species:S:1:pos:R:3:initial_magmoms:R:1 pbc="T T T"
Si      -1.91656737      -0.20663865       1.28265920       0.00000000
Si       1.71020565       0.38900520       1.61183449       0.00000000
Si      -0.74585394       2.08194345      -0.93089210       0.00000000
Si       0.49161591      -1.36102950      -2.26778535       0.00000000
Si      -1.96978680      -2.64152124       1.06085498       0.00000000
Si       2.65854429      -1.89169254       1.79411163       0.00000000
Si       3.39087753       1.57278321       0.37634726       0.00000000
Si       1.36184400       3.46182048      -1.26963206       0.00000000
Si      -3.23390709       1.88317287       1.23175050       0.00000000
Si       1.55022156       0.33897861      -3.60700976       0.00000000
