10
Lattice="16.28999089631971 0.0 0.0 0.0 16.28999089631971 0.0 0.0 0.0 34.281931910070035" Properties=species:S:1:pos:R:3:initial_magmoms:R:1 pbc="T T T"
Si      -0.81552627      -1.90935090      -1.15321809       0.00000000
Si       1.29468033      -1.36966320       1.47865254       0.00000000
Si       1.85339475       0.81860508      -1.28649333       0.00000000
Si      -1.41659469       1.33390154       1.43437397       0.00000000
Si       2.66996358      -2.69812899       0.19190351       0.00000000
Si       3.50878455      -1.01327058      -1.17345782       0.00000000
Si      -2.76219430       2.68541043      -0.08217726       0.00000000
Si       2.74968684       2.70595863      -0.05065844       0.00000000
Si      -2.67973595      -2.80210806       0.04176913       0.00000000
Si       2.65779495      -0.02845863       2.82745877       0.00000000
