10
Lattice="16.28999089631971 0.0 0.0 0.0 16.28999089631971 0.0 0.0 0.0 34.281931910070035" Properties=species:S:1:pos:R:3:initial_magmoms:R:1 pbc="T T T"
Si       1.37528325      -1.32846579      -1.28674904       0.00000000
Si       1.36311462       1.34120457       1.34880622       0.00000000
Si      -1.34713413      -1.37313297       1.34757207       0.00000000
Si      -1.29468033       1.36966320      -1.47865254       0.00000000
Si      -2.11020660      -0.53968770      -2.63187064       0.00000000
Si       2.21410422       0.35639262      -2.65211036       0.00000000
Si      -0.33790347      -2.40389901      -2.50363763       0.00000000
Si       0.55871442       2.18826828      -2.76514587       0.00000000
Si       0.01112607       2.69899218       2.70712569       0.00000000
Si      -2.70454725      -0.01808190       2.70811987       0.00000000
