10
Lattice="16.28999089631971 0.0 0.0 0.0 16.28999089631971 0.0 0.0 0.0 34.281931910070035" Properties=species:S:1:pos:R:3:initial_magmoms:R:1 pbc="T T T"
Si       1.35782037       1.35562338      -1.35787380       0.00000000
Si      -1.35868374       1.35666031       1.35763383       0.00000000
Si      -1.35679410      -1.35943308      -1.35777095       0.00000000
Si       1.35627282      -1.36257705       1.36061636       0.00000000
Si      -2.70775638       0.00115659       2.70285759       0.00000000
Si      -2.71340901       2.71329891       0.00023997       0.00000000
Si       0.00013032       2.71369476      -2.71465058       0.00000000
Si      -2.71375110      -2.71472850      -0.00037710       0.00000000
Si       2.71608057       2.71282324       0.00044567       0.00000000
Si      -2.71422351      -0.00185706      -2.71519909       0.00000000
