10
Lattice="16.28999089631971 0.0 0.0 0.0 16.28999089631971 0.0 0.0 0.0 34.281931910070035" Properties=species:S:1:pos:R:3:initial_magmoms:R:1 pbc="T T T"
Si       1.35931905       1.33389036      -1.39414410       0.00000000
Si      -1.35744570      -1.37515293      -1.38968745       0.00000000
Si       1.40401881      -1.31909904       1.50929718       0.00000000
Si      -1.25693640       1.65245760       1.42551209       0.00000000
Si      -2.70471015       2.69762400      -0.05190287       0.00000000
Si       2.71375110      -2.70430290      -0.03006527       0.00000000
Si       2.74162329       2.68286526      -0.01052456       0.00000000
Si      -2.70935280      -2.72600118      -0.01624964       0.00000000
Si       0.00304623       2.69646741      -2.75476046       0.00000000
Si      -2.71070487      -0.01826109      -2.75513756       0.00000000
