10
Lattice="16.28999089631971 0.0 0.0 0.0 16.28999089631971 0.0 0.0 0.0 34.281931910070035" Properties=species:S:1:pos:R:3:initial_magmoms:R:1 pbc="T T T"
Si       0.02358792      -1.29024945      -2.03425669       0.00000000
Si       1.97306109      -1.10200221       0.95101560       0.00000000
Si      -2.24127594      -1.07733915       0.60284811       0.00000000
Si      -2.03748804      -0.15249069      -1.63552332       0.00000000
Si      -1.29842703       2.06068500      -1.34213838       0.00000000
Si       0.42052635       2.03550066       2.80693759       0.00000000
Si       2.07591615       0.20362500       2.91997311       0.00000000
Si      -2.24839467      -0.69245532       2.94021283       0.00000000
Si       1.20739851      -3.41347176       1.54443618       0.00000000
Si      -0.47609154      -2.55666663       3.06844584       0.00000000
