10
Lattice="16.28999089631971 0.0 0.0 0.0 16.28999089631971 0.0 0.0 0.0 34.281931910070035" Properties=species:S:1:pos:R:3:initial_magmoms:R:1 pbc="T T T"
Si       0.77001201       1.84709052      -1.17399159       0.00000000
Si       1.47320244      -1.19875142       1.37705112       0.00000000
Si      -1.24651080       1.50270363       1.38299219       0.00000000
Si      -1.15227315      -1.54732913      -1.51514366       0.00000000
Si      -0.16532721       1.25706672      -3.28676633       0.00000000
Si      -2.29170978       0.26317472      -2.68007864       0.00000000
Si      -2.64433941      -2.58584921      -0.00749403       0.00000000
Si       2.75693589      -2.51353790      -0.19602420       0.00000000
Si       0.11631060      -2.55178682       2.74951189       0.00000000
Si      -2.59893918       0.16153164       2.75828807       0.00000000
