10
Lattice="16.28999089631971 0.0 0.0 0.0 16.28999089631971 0.0 0.0 0.0 34.281931910070035" Properties=species:S:1:pos:R:3:initial_magmoms:R:1 pbc="T T T"
Si       1.31940855      -1.19289064      -1.46538200       0.00000000
Si       0.12865842       2.14850439      -0.86064838       0.00000000
Si       0.93533922       0.59002380       2.11277474       0.00000000
Si      -2.12638257      -0.99389200       0.60668769       0.00000000
Si      -0.52660683       2.47642209       1.90124272       0.00000000
Si      -2.52959265      -1.29049543      -1.67391911       0.00000000
Si       3.34881675      -0.80767449      -0.02667136       0.00000000
Si      -0.98694594      -2.80439585       1.77162267       0.00000000
Si       0.16532721      -1.25706672       3.28676633       0.00000000
Si       2.40148809       2.43414954      -1.51858759       0.00000000
