10
Lattice="16.28999089631971 0.0 0.0 0.0 16.28999089631971 0.0 0.0 0.0 34.281931910070035" Properties=species:S:1:pos:R:3:initial_magmoms:R:1 pbc="T T T"
Si      -1.35824391      -1.35705474       1.35746242       0.00000000
Si       1.35751086       1.35812988       1.35718816       0.00000000
Si       1.36207206      -1.35532800      -1.35958790       0.00000000
Si      -1.36130643       1.35752715      -1.36181622       0.00000000
Si      -2.71345788      -2.71459818       0.00140556       0.00000000
Si       2.71384884      -2.71438641      -0.00006856       0.00000000
Si      -0.00006516      -2.71433754       2.71420491       0.00000000
Si       2.71467963       0.00045612       2.71430776       0.00000000
Si      -0.00089595       2.71547784       2.71478771       0.00000000
Si      -2.71595025       0.00136836       2.71489055       0.00000000
