10
Lattice="16.28999089631971 0.0 0.0 0.0 16.28999089631971 0.0 0.0 0.0 34.281931910070035" Properties=species:S:1:pos:R:3:initial_magmoms:R:1 pbc="T T T"
Si      -0.12865842      -2.14850439       0.86064838       0.00000000
Si      -1.69743429       0.26091693      -1.57858100       0.00000000
Si       2.27282967       0.28564515      -0.65793920       0.00000000
Si      -0.65526525       0.32791770       2.76189111       0.00000000
Si       0.80668080      -1.55848059       2.97342312       0.00000000
Si       1.19075013      -3.34139503      -0.60473362       0.00000000
Si      -3.41280387       1.23891966      -0.23061468       0.00000000
Si       2.63593377       2.70897813      -0.10329152       0.00000000
Si       2.46014838      -0.68201343      -2.87320460       0.00000000
Si       3.67538238      -0.62542197       0.99712483       0.00000000
