10
Lattice="16.28999089631971 0.0 0.0 0.0 16.28999089631971 0.0 0.0 0.0 34.281931910070035" Properties=species:S:1:pos:R:3:initial_magmoms:R:1 pbc="T T T"
Si       1.49206626       1.03852008      -1.50764963       0.00000000
Si      -1.30675122       1.40172192       1.39206319       0.00000000
Si       1.40351382      -1.32994818       1.38844302       0.00000000
Si      -1.82089620      -0.95218308      -1.24178517       0.00000000
Si       2.64433941       2.58584921       0.00749403       0.00000000
Si      -2.65971717      -2.63704149       0.12357615       0.00000000
Si      -2.57999391       2.76704613      -0.11898580       0.00000000
Si      -3.47628600       0.87969258      -1.35482069       0.00000000
Si      -2.67188580       0.03262887       2.75913141       0.00000000
Si       0.04808808      -2.68366347       2.75967992       0.00000000
