10
Lattice="16.28999089631971 0.0 0.0 0.0 16.28999089631971 0.0 0.0 0.0 34.281931910070035" Properties=species:S:1:pos:R:3:initial_magmoms:R:1 pbc="T T T"
Si       2.24402895      -0.07964181       0.66092173       0.00000000
Si      -0.74218869       1.52487432       1.70408722       0.00000000
Si      -0.82526769      -2.22171165       0.41059493       0.00000000
Si      -0.34469640       0.57417363      -2.31399742       0.00000000
Si       0.05963769       0.22113675       3.51489416       0.00000000
Si       3.02145291      -1.61727120      -0.94799879       0.00000000
Si      -2.68713324       0.10992492      -2.60275429       0.00000000
Si      -3.06651105      -1.94988042       1.06832844       0.00000000
Si       2.32896501      -0.22773420       3.00141910       0.00000000
Si       1.36316349      -2.39933781      -2.73645390       0.00000000
