10
Lattice="16.28999089631971 0.0 0.0 0.0 16.28999089631971 0.0 0.0 0.0 34.281931910070035" Properties=species:S:1:pos:R:3:initial_magmoms:R:1 pbc="T T T"
Si       1.69728768      -0.54815850      -1.53079196       0.00000000
Si       0.33824556       2.13635761       1.06832844       0.00000000
Si       0.50854122      -1.92736764       1.57772395       0.00000000
Si      -1.80286317      -0.08363286      -1.79195186       0.00000000
Si       1.13696055      -2.75322177      -2.05417451       0.00000000
Si       1.58672745       1.03693850      -3.17718266       0.00000000
Si       0.47459286       3.78845846      -0.56054418       0.00000000
Si      -0.71491923       0.86408676      -3.70255356       0.00000000
Si       1.22287401      -3.70964025       0.13472807       0.00000000
Si       3.88198845      -0.64684332      -0.72533752       0.00000000
