10
Lattice="16.28999089631971 0.0 0.0 0.0 16.28999089631971 0.0 0.0 0.0 34.281931910070035" Properties=species:S:1:pos:R:3:initial_magmoms:R:1 pbc="T T T"
Si      -1.49206626      -1.03852008       1.50764963       0.00000000
Si      -1.13943663       1.81050385      -1.16493498       0.00000000
Si       1.15227315       1.54732913       1.51514366       0.00000000
Si       0.83168595      -1.75285287      -1.54700732       0.00000000
Si       0.98694594       2.80439585      -1.77162267       0.00000000
Si      -0.08855244      -2.36846826       2.89609264       0.00000000
Si       2.73072528      -2.57655672      -0.10846809       0.00000000
Si      -3.31296246      -1.99070316       0.26586445       0.00000000
Si       2.36960856      -0.70258770      -3.01262930       0.00000000
Si       1.92228516       3.39441965       0.34115208       0.00000000
