10
Lattice="16.28999089631971 0.0 0.0 0.0 16.28999089631971 0.0 0.0 0.0 34.281931910070035" Properties=species:S:1:pos:R:3:initial_magmoms:R:1 pbc="T T T"
Si      -1.47320244       1.19875142      -1.37705112       0.00000000
Si      -1.35689184      -1.35303540       1.37246077       0.00000000
Si       1.36257705       1.36067728       1.37067811       0.00000000
Si       1.28373345      -1.31478648      -1.57307532       0.00000000
Si       2.71539639      -2.70411171      -0.02777524       0.00000000
Si      -2.71971324       2.70145505       0.00594106       0.00000000
Si       2.71261080       2.71440560      -0.01552630       0.00000000
Si      -2.71402803      -2.71704597       0.00389786       0.00000000
Si      -0.00027693      -2.71346217       2.73239149       0.00000000
Si      -2.71313208       0.00483406       2.73396846       0.00000000
