10
Lattice="16.28999089631971 0.0 0.0 0.0 16.28999089631971 0.0 0.0 0.0 34.281931910070035" Properties=species:S:1:pos:R:3:initial_magmoms:R:1 pbc="T T T"
Si       1.35398556      -1.35726455       1.36205620       0.00000000
Si      -1.36153449       1.35734470       1.36219333       0.00000000
Si       1.35003375       1.35372832      -1.38620440       0.00000000
Si      -1.36257705      -1.36067728      -1.37067811       0.00000000
Si       2.70987475       2.71490443      -0.00191979       0.00000000
Si       2.71168620      -2.71633536       0.00191979       0.00000000
Si      -2.71331127       2.71640311       0.00267399       0.00000000
Si       2.71142393       0.00020688       2.71914151       0.00000000
Si      -2.71946889      -2.71371267       0.00178266       0.00000000
Si      -0.00275301       2.71492072       2.71917579       0.00000000
