10
Lattice="16.28999089631971 0.0 0.0 0.0 16.28999089631971 0.0 0.0 0.0 34.281931910070035" Properties=species:S:1:pos:R:3:initial_magmoms:R:1 pbc="T T T"
Si      -1.35338949       1.35815106       1.36010213       0.00000000
Si      -1.35711990      -1.35771213      -1.35691391       0.00000000
Si       1.35772016       1.35797187      -1.35681106       0.00000000
Si       1.35662750      -1.35580271       1.36346176       0.00000000
Si       0.01347183       2.69500620       2.71687890       0.00000000
Si      -2.71433754      -2.71409549       0.00058279       0.00000000
Si      -2.71446786       0.00070861      -2.71447917       0.00000000
Si       0.00061902      -2.71492628      -2.71465058       0.00000000
Si       0.00104256       2.71510806      -2.71482199       0.00000000
Si      -2.71420722       2.71582482       0.00023997       0.00000000
