10
Lattice="16.28999089631971 0.0 0.0 0.0 16.28999089631971 0.0 0.0 0.0 34.281931910070035" Properties=species:S:1:pos:R:3:initial_magmoms:R:1 pbc="T T T"
Si      -0.74451816      -1.84905607      -1.40799401       0.00000000
Si      -1.71201384       1.78070877      -0.42602181       0.00000000
Si       1.89602568       0.83816937      -1.54008237       0.00000000
Si       0.15198570      -0.61581250       2.55657650       0.00000000
Si       0.26155224       2.62886391       2.42565373       0.00000000
Si      -2.11009257      -0.54767469      -3.07666798       0.00000000
Si      -2.03390424      -3.24316700       0.09057291       0.00000000
Si       0.62584551       2.15547651      -3.11653789       0.00000000
Si       2.76406669       2.69576694      -0.32516431       0.00000000
Si      -1.93523571       2.94674697       1.62383318       0.00000000
