10
Lattice="16.28999089631971 0.0 0.0 0.0 16.28999089631971 0.0 0.0 0.0 34.281931910070035" Properties=species:S:1:pos:R:3:initial_magmoms:R:1 pbc="T T T"
Si      -1.36103113       1.35485559      -1.35375997       0.00000000
Si       1.35677781       1.35588186       1.35732529       0.00000000
Si       1.35645201      -1.35664749      -1.35897082       0.00000000
Si      -1.35775358      -1.35886293       1.35698247       0.00000000
Si      -0.00726534       2.70945054      -2.69006013       0.00000000
Si      -2.71509407       2.71269225       0.00143984       0.00000000
Si      -0.00009774       2.71314837       2.71502768       0.00000000
Si      -2.71464361      -0.00166158       2.71492483       0.00000000
Si       2.71466334      -0.00166158       2.71502768       0.00000000
Si      -2.71613364      -2.71422351      -0.00034282       0.00000000
