10
Lattice="16.28999089631971 0.0 0.0 0.0 16.28999089631971 0.0 0.0 0.0 34.281931910070035" Properties=species:S:1:pos:R:3:initial_magmoms:R:1 pbc="T T T"
Si       1.34468574       1.34332227      -1.36418168       0.00000000
Si       1.25772972      -1.37427327       1.44656121       0.00000000
Si      -1.37084815      -1.37077092      -1.36277612       0.00000000
Si      -1.33375124       1.37617920       1.39911499       0.00000000
Si      -2.37240622      -0.40135302       2.57234620       0.00000000
Si      -0.57550941      -2.20924980       2.78595704       0.00000000
Si       2.70542202       2.71002069       0.01669531       0.00000000
Si      -0.01000369       2.70197343      -2.72243258       0.00000000
Si       2.70486816      -0.01303200      -2.72394099       0.00000000
Si      -2.72915722       2.70137070       0.00781628       0.00000000
