10
Lattice="16.28999089631971 0.0 0.0 0.0 16.28999089631971 0.0 0.0 0.0 34.281931910070035" Properties=species:S:1:pos:R:3:initial_magmoms:R:1 pbc="T T T"
Si       0.84791798       1.74099375       1.33157954       0.00000000
Si      -1.82252520      -0.80783739      -1.32376326       0.00000000
Si       0.82719498       1.79719425      -1.41512466       0.00000000
Si       1.62261336      -1.87235631       0.00565652       0.00000000
Si      -2.57963553      -0.50187861       2.09099332       0.00000000
Si       2.06149854       0.38162583      -2.79089364       0.00000000
Si      -0.67865769      -2.32751520      -2.77841501       0.00000000
Si       3.41448893      -0.90818379      -1.31735253       0.00000000
Si      -3.12556230      -2.11203108       0.26431384       0.00000000
Si       2.05330956      -2.27421432       2.34341133       0.00000000
