10
Lattice="16.28999089631971 0.0 0.0 0.0 16.28999089631971 0.0 0.0 0.0 34.281931910070035" Properties=species:S:1:pos:R:3:initial_magmoms:R:1 pbc="T T T"
Si       2.17216140       0.78568299      -0.40990929       0.00000000
Si      -1.51192377      -0.79643439      -1.65369276       0.00000000
Si      -0.74793906       1.53647280       1.66853684       0.00000000
Si       0.06726141      -2.28459105       0.75074045       0.00000000
Si      -0.59440581      -0.19911267       3.26086490       0.00000000
Si      -2.87028171      -1.68964767       0.10157742       0.00000000
Si       1.74146520       1.18754100      -2.74766410       0.00000000
Si       3.33181718      -1.28725209      -0.28378599       0.00000000
Si       2.20167888      -2.28066516       1.67830720       0.00000000
Si      -2.46078369       2.55801870      -0.66232729       0.00000000
