10
Lattice="16.28999089631971 0.0 0.0 0.0 16.28999089631971 0.0 0.0 0.0 34.281931910070035" Properties=species:S:1:pos:R:3:initial_magmoms:R:1 pbc="T T T"
Si      -1.25573094      -1.16867718       1.57107325       0.00000000
Si      -0.62035578       2.27800989       0.12701463       0.00000000
Si       2.04673654       0.18117738       1.18927516       0.00000000
Si       0.18029772      -1.02796416      -2.15294081       0.00000000
Si       2.21882899      -2.13868152      -1.70288736       0.00000000
Si      -0.27595260      -0.29696670       3.51571693       0.00000000
Si       3.48704459      -0.62669259      -0.41320036       0.00000000
Si      -3.52000836      -1.00507671       1.00651808       0.00000000
Si       0.02676447       0.70762131      -3.74526887       0.00000000
Si       2.46359764       2.46576843       1.68540356       0.00000000
