10
Lattice="16.28999089631971 0.0 0.0 0.0 16.28999089631971 0.0 0.0 0.0 34.281931910070035" Properties=species:S:1:pos:R:3:initial_magmoms:R:1 pbc="T T T"
Si      -1.35667760       1.35713619      -1.35801093       0.00000000
Si      -1.35772016      -1.35797187       1.35681106       0.00000000
Si       1.35749934      -1.35757765      -1.35804521       0.00000000
Si       1.35959586       1.35835794       1.35629683       0.00000000
Si      -2.71110965       0.00017919       2.71691319       0.00000000
Si      -2.71462829       2.71440270      -0.00061708       0.00000000
Si       2.71499880      -0.00058644      -2.71499340       0.00000000
Si       0.00006097      -2.71504908      -2.71513052       0.00000000
Si       2.71521057       2.71523349      -0.00030854       0.00000000
Si      -2.71545908      -0.00043983      -2.71499340       0.00000000
