10
Lattice="16.28999089631971 0.0 0.0 0.0 16.28999089631971 0.0 0.0 0.0 34.281931910070035" Properties=species:S:1:pos:R:3:initial_magmoms:R:1 pbc="T T T"
Si       1.26581445      -1.42169346       1.40324939       0.00000000
Si       1.37567421       1.08440901      -1.60608682       0.00000000
Si      -1.44360351       1.29249747       1.39847391       0.00000000
Si      -1.28500407      -1.29950217      -1.54941876       0.00000000
Si       0.54550323      -1.98751032      -2.98418697       0.00000000
Si      -0.52336512       1.90811286      -3.04462605       0.00000000
Si      -2.57166972      -2.66833458      -0.08708301       0.00000000
Si       2.55415797       2.69475696      -0.17849926       0.00000000
Si       2.63200788      -0.06211377       2.76364291       0.00000000
Si      -0.08646732       2.65650804       2.76703683       0.00000000
