10
Lattice="16.28999089631971 0.0 0.0 0.0 16.28999089631971 0.0 0.0 0.0 34.281931910070035" Properties=species:S:1:pos:R:3:initial_magmoms:R:1 pbc="T T T"
Si      -0.28457001       0.29862406       2.31348319       0.00000000
Si       2.20723703       0.68734256      -0.45553857       0.00000000
Si      -0.85421502      -2.08520145      -0.74124435       0.00000000
Si      -1.62588861       1.35906397      -1.18948086       0.00000000
Si      -0.72371583       2.55139586       2.32476195       0.00000000
Si      -1.98809676       3.07487501       0.41625145       0.00000000
Si      -3.63672621       0.31233210      -0.57977636       0.00000000
Si       3.53697344      -0.44142642       1.28197356       0.00000000
Si       2.96654651      -0.47535849      -2.36000379       0.00000000
Si       0.35912024      -2.64021804      -2.73936786       0.00000000
