10
Lattice="16.28999089631971 0.0 0.0 0.0 16.28999089631971 0.0 0.0 0.0 34.281931910070035" Properties=species:S:1:pos:R:3:initial_magmoms:R:1 pbc="T T T"
Si      -1.31463558      -1.32540327       1.40394874       0.00000000
Si       0.39175821      -0.84302379      -2.15359217       0.00000000
Si      -1.28329362       2.03690160       0.38807169       0.00000000
Si       2.29742010      -0.38612187       0.77429215       0.00000000
Si       0.40350330       3.30746851      -0.50576162       0.00000000
Si      -0.43587153      -0.33619302       3.35082074       0.00000000
Si       1.76931784      -1.13764473       2.96233767       0.00000000
Si      -0.16614171       0.92364300      -3.56048916       0.00000000
Si      -0.66751533      -2.89579185      -2.46833476       0.00000000
Si      -0.69427980      -3.60341316       1.27693411       0.00000000
