10
Lattice="16.28999089631971 0.0 0.0 0.0 16.28999089631971 0.0 0.0 0.0 34.281931910070035" Properties=species:S:1:pos:R:3:initial_magmoms:R:1 pbc="T T T"
Si      -1.37567421      -1.08440901       1.60608682       0.00000000
Si       1.17848376       1.61034795       1.42758756       0.00000000
Si      -1.89903933       0.82370385      -1.43853923       0.00000000
Si       1.35718506      -2.07505278      -1.26784940       0.00000000
Si      -0.83017098      -3.07191933      -1.37810015       0.00000000
Si      -0.36111672       1.87396902      -2.90416120       0.00000000
Si       1.92204081       1.12487337      -2.75575464       0.00000000
Si      -2.66067828      -2.38391118       0.05666807       0.00000000
Si      -2.73072528       2.57655672       0.10846809       0.00000000
Si      -0.10985976      -2.50610247       3.00933621       0.00000000
