10
Lattice="16.28999089631971 0.0 0.0 0.0 16.28999089631971 0.0 0.0 0.0 34.281931910070035" Properties=species:S:1:pos:R:3:initial_magmoms:R:1 pbc="T T T"
Si       2.18051424       0.69631605      -0.50672152       0.00000000
Si      -1.22583064       0.33101280      -1.97542887       0.00000000
Si       0.38320596      -2.32525089      -0.05132008       0.00000000
Si      -0.78564389       1.19843901       1.94471224       0.00000000
Si       3.47697018      -0.27750015       1.17329978       0.00000000
Si      -1.27622050       2.68413588      -2.22219035       0.00000000
Si       2.35439370      -2.55352266      -1.36483304       0.00000000
Si      -3.48442190      -0.17917371      -1.40014345       0.00000000
Si      -1.57910780      -3.27135780      -1.01015197       0.00000000
Si      -0.11579421       3.47550408       1.54553320       0.00000000
