10
Lattice="16.28999089631971 0.0 0.0 0.0 16.28999089631971 0.0 0.0 0.0 34.281931910070035" Properties=species:S:1:pos:R:3:initial_magmoms:R:1 pbc="T T T"
Si      -1.03865498      -1.77753222       1.17323121       0.00000000
Si       1.33375124      -1.37617920      -1.39911499       0.00000000
Si      -1.39540598       1.32519150      -1.39129870       0.00000000
Si       0.90586507       1.78035039       1.39277283       0.00000000
Si      -2.34752390      -0.20362500       2.48674417       0.00000000
Si       2.59148097      -2.75045247       0.04744622       0.00000000
Si      -2.53927349       2.84486931       0.06335305       0.00000000
Si      -0.03567618       2.67980274      -2.76034842       0.00000000
Si       2.67843699      -0.03285693      -2.76329667       0.00000000
Si       2.69774064       2.74452291       0.06976377       0.00000000
