10
Lattice="16.28999089631971 0.0 0.0 0.0 16.28999089631971 0.0 0.0 0.0 34.281931910070035" Properties=species:S:1:pos:R:3:initial_magmoms:R:1 pbc="T T T"
Si       0.43069620      -0.40185801       2.33775481       0.00000000
Si       1.79187556       0.96417252      -1.32300906       0.00000000
Si      -0.90586507      -1.78035039      -1.39277283       0.00000000
Si      -1.62261336       1.87235631      -0.00565652       0.00000000
Si      -1.74146520      -1.18754100       2.74766410       0.00000000
Si       0.43888518       2.25398214      -2.79655016       0.00000000
Si      -2.30127105      -0.45515889      -2.78407153       0.00000000
Si       1.59035197      -2.47479309       2.46387811       0.00000000
Si      -3.44513856       1.06451892      -1.32941978       0.00000000
Si      -0.77469539       3.61335006       1.32592302       0.00000000
