10
Lattice="16.28999089631971 0.0 0.0 0.0 16.28999089631971 0.0 0.0 0.0 34.281931910070035" Properties=species:S:1:pos:R:3:initial_magmoms:R:1 pbc="T T T"
Si       1.35749946       1.35699121      -1.35694819       0.00000000
Si      -1.35743837      -1.35747143      -1.35708532       0.00000000
Si      -1.35749934       1.35757765       1.35804521       0.00000000
Si       1.35824880      -1.35818339       1.35807949       0.00000000
Si      -2.71417694       2.71471384       0.00003428       0.00000000
Si      -2.71460048      -2.71532050       0.00020569       0.00000000
Si      -2.71521950      -0.00039422       2.71485627       0.00000000
Si       0.00209652       2.71593559       2.71434204       0.00000000
Si       2.71561305       2.71476271       0.00020569       0.00000000
Si      -2.71142393      -0.00020688      -2.71914151       0.00000000
