10
Lattice="16.28999089631971 0.0 0.0 0.0 16.28999089631971 0.0 0.0 0.0 34.281931910070035" Properties=species:S:1:pos:R:3:initial_magmoms:R:1 pbc="T T T"
Si      -0.67869027       1.60868637       1.52222147       0.00000000
Si      -1.50755316       0.11717397      -1.81570926       0.00000000
Si      -0.37548450      -2.03362731       1.21868908       0.00000000
Si       2.24438733      -0.01137042      -0.89030227       0.00000000
Si       1.78010604      -2.89391850       1.08670357       0.00000000
Si       2.45837277      -2.40101568      -1.12043701       0.00000000
Si       1.12506885       1.64312343       3.11866337       0.00000000
Si      -1.92441426      -2.16741708      -2.31183765       0.00000000
Si      -1.95642574      -3.16485378      -0.17590069       0.00000000
Si      -0.85206637       3.68702973       0.37185632       0.00000000
