10
Lattice="16.28999089631971 0.0 0.0 0.0 16.28999089631971 0.0 0.0 0.0 34.281931910070035" Properties=species:S:1:pos:R:3:initial_magmoms:R:1 pbc="T T T"
Si       1.77057639       0.80879850       1.54489011       0.00000000
Si       0.29818845      -1.91747961      -1.63689460       0.00000000
Si      -1.82124969       1.77549597       0.24645299       0.00000000
Si      -0.84641374      -1.92472866       1.48353227       0.00000000
Si       0.92437605       1.61502318      -2.09140471       0.00000000
Si      -2.14593944      -0.52569459       2.91656925       0.00000000
Si       0.56226564       2.19481686       2.94909597       0.00000000
Si       2.63150289      -1.73731221      -2.08434262       0.00000000
Si      -1.21514603      -1.36353816      -3.40292931       0.00000000
Si      -0.69934436       3.49741413       1.49545554       0.00000000
