10
Lattice="16.28999089631971 0.0 0.0 0.0 16.28999089631971 0.0 0.0 0.0 34.281931910070035" Properties=species:S:1:pos:R:3:initial_magmoms:R:1 pbc="T T T"
Si      -1.36567215      -1.36190916      -1.33081506       0.00000000
Si       1.34713413       1.37313297      -1.34757207       0.00000000
Si       1.35646830      -1.35549090       1.35924508       0.00000000
Si      -1.35741312       1.35505107       1.36054779       0.00000000
Si       2.72241738       0.04466718      -2.63432111       0.00000000
Si      -2.62728215      -0.05931189      -2.78445549       0.00000000
Si       2.71024875       2.71433754       0.00123415       0.00000000
Si       2.71207323      -2.71463076      -0.00435381       0.00000000
Si      -2.71605125       2.71314837      -0.00075420       0.00000000
Si       2.71371852       0.00008145       2.71677606       0.00000000
