10
Lattice="16.28999089631971 0.0 0.0 0.0 16.28999089631971 0.0 0.0 0.0 34.281931910070035" Properties=species:S:1:pos:R:3:initial_magmoms:R:1 pbc="T T T"
Si      -1.35331781       1.35837423      -1.36373601       0.00000000
Si       1.36098063      -1.35761186      -1.36250186       0.00000000
Si      -1.37112441      -1.34054971       1.37155230       0.00000000
Si       1.36985868       1.36161594       1.38341385       0.00000000
Si       0.09889659      -2.59655758       2.64954915       0.00000000
Si      -2.71400633      -2.71375829       0.00023997       0.00000000
Si       2.71570590      -2.71425045      -0.00510801       0.00000000
Si      -2.71427957       2.71581993      -0.00370245       0.00000000
Si      -2.71291368       0.00001629      -2.72003284       0.00000000
Si       2.71749780       2.71578735      -0.00418240       0.00000000
