10
Lattice="16.28999089631971 0.0 0.0 0.0 16.28999089631971 0.0 0.0 0.0 34.281931910070035" Properties=species:S:1:pos:R:3:initial_magmoms:R:1 pbc="T T T"
Si      -0.84791798      -1.74099375      -1.33157954       0.00000000
Si       2.37187287      -0.13859532       0.31731374       0.00000000
Si      -1.21333526       0.55501659       1.99812352       0.00000000
Si       0.86643904       1.95572853      -1.36798698       0.00000000
Si      -0.02072300       0.05620050      -2.74670420       0.00000000
Si       2.60742627       2.16485955       0.37936407       0.00000000
Si      -0.65543534      -1.21165020       3.40502051       0.00000000
Si      -0.35912024       2.64021804       2.73936786       0.00000000
Si       0.77469539      -3.61335006      -1.32592302       0.00000000
Si      -3.70010150       0.71599437       1.40734266       0.00000000
