10
Lattice="16.28999089631971 0.0 0.0 0.0 16.28999089631971 0.0 0.0 0.0 34.61538196595647" Properties=species:S:1:pos:R:3:initial_magmoms:R:1 pbc="T T T"
Si       0.78903873       1.74553866       1.42480942       0.00000000
Si       0.06141330       0.19334601      -2.43443194       0.00000000
Si      -1.80902079      -0.97456554       1.35085708       0.00000000
Si       1.63738935      -1.92839391      -0.03070386       0.00000000
Si      -2.63962183       1.07388567      -1.12108900       0.00000000
Si       2.13620544       0.51201099       2.87046973       0.00000000
Si       3.30711435      -0.86783346       1.33636361       0.00000000
Si      -0.57471120      -2.22094602       2.88165051       0.00000000
Si       0.51965100       2.42515746      -3.05460147       0.00000000
Si      -2.63706918      -2.92785057       0.12714237       0.00000000
