10
Lattice="16.28999089631971 0.0 0.0 0.0 16.28999089631971 0.0 0.0 0.0 34.61538196595647" Properties=species:S:1:pos:R:3:initial_magmoms:R:1 pbc="T T T"
Si       0.45823770       2.23181145      -0.62016953       0.00000000
Si      -0.06141330      -0.19334601       2.43443194       0.00000000
Si      -1.41933141      -1.66957839      -1.16158902       0.00000000
Si       2.07876690      -0.94776849      -1.12936208       0.00000000
Si      -2.70103513       0.88053966       1.31334294       0.00000000
Si       1.57597605      -2.12173992       2.40372808       0.00000000
Si       2.46386250       2.75416659       0.65696570       0.00000000
Si       1.71623295      -3.26085075      -0.86573119       0.00000000
Si      -1.60870266       3.55142592      -0.68998879       0.00000000
Si       1.45748259       2.46987351      -2.77795519       0.00000000
