10
Lattice="16.28999089631971 0.0 0.0 0.0 16.28999089631971 0.0 0.0 0.0 34.61538196595647" Properties=species:S:1:pos:R:3:initial_magmoms:R:1 pbc="T T T"
Si      -2.07365184       0.51136754      -0.97712355       0.00000000
Si       0.52022115       2.28015203       0.27844629       0.00000000
Si       1.73022606      -0.50407238      -1.56229691       0.00000000
Si      -0.25249500      -1.93894887       1.37627374       0.00000000
Si      -1.59871689      -3.05509080      -0.30246938       0.00000000
Si      -3.37300740      -1.45533135      -0.68528110       0.00000000
Si       2.45192193       1.54205212      -2.38250884       0.00000000
Si      -1.56836862       1.12690147      -3.32761314       0.00000000
Si       2.74123233       2.70067837      -0.33334631       0.00000000
Si       3.70301022      -1.13085084      -0.35048094       0.00000000
