10
Lattice="16.28999089631971 0.0 0.0 0.0 16.28999089631971 0.0 0.0 0.0 34.61538196595647" Properties=species:S:1:pos:R:3:initial_magmoms:R:1 pbc="T T T"
Si       0.53095626       1.55378907      -1.65382003       0.00000000
Si      -2.29954527       0.32931864       0.26421936       0.00000000
Si       0.62455860       1.03259052       2.06390869       0.00000000
Si       0.49337523      -2.29557556      -0.49043101       0.00000000
Si      -2.50090596      -0.87832585       2.31428189       0.00000000
Si       0.96500331       3.35775996       1.43792377       0.00000000
Si       0.13830210       3.72338901      -0.82685809       0.00000000
Si      -1.13239935       0.49301685       3.66237869       0.00000000
Si      -1.00142775       1.50143301      -3.45728244       0.00000000
Si       1.80700083      -3.36491846       1.15393902       0.00000000
