10
Lattice="16.28999089631971 0.0 0.0 0.0 16.28999089631971 0.0 0.0 0.0 34.61538196595647" Properties=species:S:1:pos:R:3:initial_magmoms:R:1 pbc="T T T"
Si       1.90058688       1.41380910       0.21710780       0.00000000
Si       0.45836802      -0.98589849      -2.21445107       0.00000000
Si      -2.27395368       0.94467339      -0.27211167       0.00000000
Si      -0.50528322      -0.61553394       2.35048960       0.00000000
Si       1.13938776       2.66908392       1.99464327       0.00000000
Si       1.82979054       2.50341462      -1.84725089       0.00000000
Si       1.56836862      -1.12690147       3.32761314       0.00000000
Si       1.30065876       0.84859497      -3.61118251       0.00000000
Si      -1.18804599       2.99395539       2.27862802       0.00000000
Si      -2.27915019       3.26663370       0.14372315       0.00000000
