10
Lattice="16.28999089631971 0.0 0.0 0.0 16.28999089631971 0.0 0.0 0.0 34.61538196595647" Properties=species:S:1:pos:R:3:initial_magmoms:R:1 pbc="T T T"
Si       1.49775147      -1.18348479       1.35252065       0.00000000
Si      -1.21481046       1.53945387       1.33339218       0.00000000
Si       1.72209735       1.01247237      -1.38237786       0.00000000
Si      -1.18788309      -1.62711036      -1.41342788       0.00000000
Si       0.20610108       0.25093116      -3.43621347       0.00000000
Si       0.14454117      -2.52626949       2.70557784       0.00000000
Si      -2.56930767       0.18524988       2.70003938       0.00000000
Si       2.74209570      -2.56800447      -0.05248041       0.00000000
Si      -2.61180828       2.82095559      -0.09650428       0.00000000
Si      -2.69586468      -2.75200002      -0.06219003       0.00000000
