10
Lattice="16.28999089631971 0.0 0.0 0.0 16.28999089631971 0.0 0.0 0.0 34.61538196595647" Properties=species:S:1:pos:R:3:initial_magmoms:R:1 pbc="T T T"
Si       0.86253921      -0.76290957       2.08661639       0.00000000
Si      -2.14185807       1.02304458       0.35442709       0.00000000
Si      -0.84199752      -1.21415886      -1.93257786       0.00000000
Si       2.25652338       1.11513195       0.06383080       0.00000000
Si      -0.55382742       0.47866536      -3.48507860       0.00000000
Si       2.63148660      -2.38544244       1.49891611       0.00000000
Si       0.79338816      -2.80199403      -2.55672816       0.00000000
Si       2.23234902       2.69441487      -1.68680851       0.00000000
Si       3.88767366      -0.68418000       0.22780396       0.00000000
Si      -0.64544238      -1.88779923       3.43785424       0.00000000
