10
Lattice="16.28999089631971 0.0 0.0 0.0 16.28999089631971 0.0 0.0 0.0 34.61538196595647" Properties=species:S:1:pos:R:3:initial_magmoms:R:1 pbc="T T T"
Si       1.83295080       0.95307903      -1.13502897       0.00000000
Si      -1.17090891       1.37984445       1.53410612       0.00000000
Si      -1.66972500      -1.06056045      -1.36706747       0.00000000
Si       1.50565212      -1.33635015       1.51078573       0.00000000
Si      -2.51807562       2.61337212       0.08844581       0.00000000
Si      -3.30711435       0.86783346      -1.33636361       0.00000000
Si      -2.57992875      -2.77250913       0.10129851       0.00000000
Si       2.77146657      -2.67538815      -0.01617232       0.00000000
Si      -2.54088162       0.02194263       2.89718447       0.00000000
Si       0.17925516      -2.68819209       2.89742678       0.00000000
