10
Lattice="16.28999089631971 0.0 0.0 0.0 16.28999089631971 0.0 0.0 0.0 34.61538196595647" Properties=species:S:1:pos:R:3:initial_magmoms:R:1 pbc="T T T"
Si      -1.35728280      -1.35659862       1.35751219       0.00000000
Si       1.35790182       1.35822762       1.35688912       0.00000000
Si       1.36146933      -1.35360126      -1.36031604       0.00000000
Si      -1.35866745       1.35653346      -1.36055835       0.00000000
Si      -2.69961138      -0.01852173      -2.71245592       0.00000000
Si       0.00127062      -2.71477737       2.71471285       0.00000000
Si      -2.71494027       0.00084708       2.71460900       0.00000000
Si       2.71477737       2.71511946       0.00062308       0.00000000
Si       2.71407690      -2.71603170       0.00006923       0.00000000
Si       2.71555929       0.00087966       2.71478208       0.00000000
