10
Lattice="16.28999089631971 0.0 0.0 0.0 16.28999089631971 0.0 0.0 0.0 34.61538196595647" Properties=species:S:1:pos:R:3:initial_magmoms:R:1 pbc="T T T"
Si      -1.35257499      -0.39625425       1.88920476       0.00000000
Si       0.25249500       1.93894887      -1.37627374       0.00000000
Si       2.09456820      -0.76916493       0.89020428       0.00000000
Si      -1.34622189      -1.11614193      -1.67874312       0.00000000
Si       0.07121988      -0.30393882       3.72042872       0.00000000
Si       3.33115839      -1.36809936      -0.99498510       0.00000000
Si      -3.12051240       0.48361752      -2.06155484       0.00000000
Si       1.56364452      -1.92573864       2.85320907       0.00000000
Si       1.98272106       1.43487649      -2.93857065       0.00000000
Si      -1.82115684       2.45031641      -2.35339729       0.00000000
