10
Lattice="16.28999089631971 0.0 0.0 0.0 16.28999089631971 0.0 0.0 0.0 34.61538196595647" Properties=species:S:1:pos:R:3:initial_magmoms:R:1 pbc="T T T"
Si       0.59611626       1.60647093       1.57468922       0.00000000
Si       1.14807033      -1.83800070       0.85358118       0.00000000
Si       1.13735151       0.54345069      -2.01163943       0.00000000
Si      -2.26909926      -0.68062878      -0.45384253       0.00000000
Si      -1.59917301      -2.62536156      -1.66410080       0.00000000
Si      -0.17932032      -3.56751000       0.01626924       0.00000000
Si       2.98931274       1.23351138       1.85531628       0.00000000
Si      -3.17810407       1.27053855      -1.61622770       0.00000000
Si      -0.20932650       3.73440661       0.91637352       0.00000000
Si      -0.28644336       0.45113526      -3.84286339       0.00000000
