10
Lattice="16.28999089631971 0.0 0.0 0.0 16.28999089631971 0.0 0.0 0.0 34.61538196595647" Properties=species:S:1:pos:R:3:initial_magmoms:R:1 pbc="T T T"
Si      -1.35666378       1.35706796      -1.35799681       0.00000000
Si       1.35959598       1.35738073       1.35675065       0.00000000
Si      -1.35832536      -1.35858486       1.35692373       0.00000000
Si       1.35850455      -1.35798213      -1.35761604       0.00000000
Si      -2.71391400       2.71462280      -0.00034615       0.00000000
Si      -0.00180819       2.71432958      -2.71550900       0.00000000
Si      -2.71441899      -2.71560702       0.00006923       0.00000000
Si       0.00001629      -2.71601427      -2.71450516       0.00000000
Si       2.71541268       2.71519295       0.00003462       0.00000000
Si      -2.71559187      -0.00053797      -2.71502439       0.00000000
