10
Lattice="16.28999089631971 0.0 0.0 0.0 16.28999089631971 0.0 0.0 0.0 34.61538196595647" Properties=species:S:1:pos:R:3:initial_magmoms:R:1 pbc="T T T"
Si       1.33695288       1.34039007      -1.37526989       0.00000000
Si      -1.38132684      -1.37158542      -1.37156605       0.00000000
Si      -1.18001502       1.56797766       1.37208528       0.00000000
Si       1.44800181      -1.32699969       1.42781607       0.00000000
Si      -1.36392912       0.12162114       3.19012077       0.00000000
Si      -0.32402439      -2.17333035       2.75507441       0.00000000
Si       2.69604387       2.68747533       0.01592308       0.00000000
Si       2.69394246      -0.01412343      -2.73295516       0.00000000
Si      -0.01928736       2.69974170      -2.73361286       0.00000000
Si      -2.74167216       2.69680950      -0.00491539       0.00000000
