10
Lattice="16.28999089631971 0.0 0.0 0.0 16.28999089631971 0.0 0.0 0.0 34.61538196595647" Properties=species:S:1:pos:R:3:initial_magmoms:R:1 pbc="T T T"
Si       2.10141000       0.71482149      -0.68455418       0.00000000
Si      -1.42063461       0.20707848      -1.83316242       0.00000000
Si      -0.31488570      -2.30512785       0.10696159       0.00000000
Si      -0.34806843       1.18516266       2.03424329       0.00000000
Si       3.28100148      -1.07882154       0.20765779       0.00000000
Si      -0.89772561       2.36369529      -2.58061278       0.00000000
Si       2.29379490      -1.76262850       2.28745495       0.00000000
Si      -0.50409405       3.52776240       1.23909291       0.00000000
Si      -2.65795785       0.88658325       2.55679739       0.00000000
Si       1.43811378       0.14092479       3.55337479       0.00000000
