10
Lattice="16.28999089631971 0.0 0.0 0.0 16.28999089631971 0.0 0.0 0.0 34.61538196595647" Properties=species:S:1:pos:R:3:initial_magmoms:R:1 pbc="T T T"
Si      -1.26211662       1.28907657       1.43739415       0.00000000
Si       1.17372708       1.62126225      -1.42253865       0.00000000
Si       1.46839689      -1.45078740       1.41522991       0.00000000
Si      -1.91920635      -0.95246001      -1.40014248       0.00000000
Si       1.86531903       0.34616250      -3.22108567       0.00000000
Si      -0.48578409       0.14747337      -3.72941284       0.00000000
Si      -2.71420722       2.62984131      -0.11550121       0.00000000
Si      -2.59639794      -0.09769113       2.80014020       0.00000000
Si       0.11873781       2.61159651       2.79930943       0.00000000
Si       2.85733116       2.61350244      -0.05176733       0.00000000
