10
Lattice="16.28999089631971 0.0 0.0 0.0 16.28999089631971 0.0 0.0 0.0 34.61538196595647" Properties=species:S:1:pos:R:3:initial_magmoms:R:1 pbc="T T T"
Si      -1.35909099      -1.34708526      -1.39119298       0.00000000
Si       1.35641943       1.36806678      -1.38876990       0.00000000
Si      -1.21950198       1.55406600       1.34477373       0.00000000
Si       1.40406768      -1.27449702       1.66098542       0.00000000
Si       2.27191743       0.70714890       2.93992065       0.00000000
Si      -2.69604387      -2.68747533      -0.01592308       0.00000000
Si       2.71451673      -2.68687260       0.00086539       0.00000000
Si      -0.00210141      -2.70159876      -2.74887825       0.00000000
Si      -2.70834282       2.74620078      -0.03883848       0.00000000
Si       2.71450044       2.74432743      -0.02565001       0.00000000
