10
Lattice="16.28999089631971 0.0 0.0 0.0 16.28999089631971 0.0 0.0 0.0 34.61538196595647" Properties=species:S:1:pos:R:3:initial_magmoms:R:1 pbc="T T T"
Si      -0.94007961      -2.13814395       0.23046934       0.00000000
Si      -0.38390643       2.09062602       1.07768129       0.00000000
Si      -1.26400626       0.23071527      -2.07692408       0.00000000
Si       2.12918445      -0.66775968       1.74250469       0.00000000
Si       2.28100725       2.02670406      -1.75517392       0.00000000
Si      -1.69134183      -1.80564876       2.51051660       0.00000000
Si       0.49769208       1.05119370      -3.36939393       0.00000000
Si       1.72131543       3.17299878       0.74229267       0.00000000
Si       0.81640593      -3.74868738       0.16923470       0.00000000
Si      -1.27187433       1.80432927       3.29780928       0.00000000
