10
Lattice="16.28999089631971 0.0 0.0 0.0 16.28999089631971 0.0 0.0 0.0 34.61538196595647" Properties=species:S:1:pos:R:3:initial_magmoms:R:1 pbc="T T T"
Si      -1.22163597      -1.95049944       0.13025776       0.00000000
Si      -1.23898482       1.08699912      -1.66631619       0.00000000
Si       2.29563567       0.12963582      -0.56336566       0.00000000
Si       0.13859532       1.00903518       2.14916642       0.00000000
Si       0.22486716       2.97352773      -1.44882762       0.00000000
Si       2.11603842       1.82112426      -2.21728953       0.00000000
Si      -2.02528683       1.74563640       2.42518963       0.00000000
Si       0.80316216      -0.86592753       3.59422096       0.00000000
Si       3.19645638      -2.01852648      -1.03870435       0.00000000
Si       3.45139488       1.57744215       1.00194279       0.00000000
