10
Lattice="16.28999089631971 0.0 0.0 0.0 16.28999089631971 0.0 0.0 0.0 34.61538196595647" Properties=species:S:1:pos:R:3:initial_magmoms:R:1 pbc="T T T"
Si      -1.81249056       1.67669712       0.11623852       0.00000000
Si      -0.79249221      -1.90377972       1.44613597       0.00000000
Si       1.91920635       0.95246001       1.40014248       0.00000000
Si      -1.69733655      -0.88415604      -1.77362393       0.00000000
Si       1.43342226       1.09993338      -2.32927035       0.00000000
Si      -2.03683644      -0.51926004       2.85113703       0.00000000
Si       0.65708973       2.24153658       2.83753664       0.00000000
Si      -0.79500087       3.58230132       1.28464127       0.00000000
Si      -3.53458791       0.66422475       1.49861638       0.00000000
Si      -2.95352361      -2.58541848      -0.50251178       0.00000000
