10
Lattice="16.28999089631971 0.0 0.0 0.0 16.28999089631971 0.0 0.0 0.0 34.61538196595647" Properties=species:S:1:pos:R:3:initial_magmoms:R:1 pbc="T T T"
Si       1.26211662      -1.28907657      -1.43739415       0.00000000
Si       1.38085443       1.32251994       1.36191527       0.00000000
Si      -1.33428132      -1.38676770       1.36274604       0.00000000
Si      -1.45209060       1.34076474      -1.55289536       0.00000000
Si      -0.65708973      -2.24153658      -2.83753664       0.00000000
Si      -2.46958029      -0.56483946      -2.72129812       0.00000000
Si       2.43584370       0.33218568      -2.85993280       0.00000000
Si      -2.71790505       2.67980274      -0.02593732       0.00000000
Si       0.02565675       2.68169238       2.72140054       0.00000000
Si      -2.69169444      -0.03446964       2.72108900       0.00000000
