10
Lattice="16.28999089631971 0.0 0.0 0.0 16.28999089631971 0.0 0.0 0.0 34.61538196595647" Properties=species:S:1:pos:R:3:initial_magmoms:R:1 pbc="T T T"
Si      -1.32639696      -1.35184194       1.38664105       0.00000000
Si       1.38592062       1.36080144       1.38428721       0.00000000
Si       1.26581445      -1.33903800      -1.52695804       0.00000000
Si      -1.50565212       1.33635015      -1.51078573       0.00000000
Si       0.32729868       2.28942918      -2.64581470       0.00000000
Si       2.21273586       0.44461926      -2.82582625       0.00000000
Si      -2.67656103       2.71619460       0.02332040       0.00000000
Si       2.71790505      -2.67980274       0.02593732       0.00000000
Si      -2.68858305      -2.71766070       0.02040924       0.00000000
Si      -2.68786629       0.00175932       2.74695709       0.00000000
