10
Lattice="16.28999089631971 0.0 0.0 0.0 16.28999089631971 0.0 0.0 0.0 34.61538196595647" Properties=species:S:1:pos:R:3:initial_magmoms:R:1 pbc="T T T"
Si      -1.35607734      -1.35710361       1.35640450       0.00000000
Si       1.35956340       1.35638685       1.35685450       0.00000000
Si      -1.35765747       1.35734796      -1.35789296       0.00000000
Si       1.35744570      -1.35782037      -1.35775450       0.00000000
Si       2.71204065       0.00013032       2.71273977       0.00000000
Si      -0.00078192       2.71423980      -2.71415900       0.00000000
Si       2.71450044      -2.71482624      -0.00027692       0.00000000
Si      -2.71521720       2.71464705       0.00041538       0.00000000
Si       2.71489140       2.71503801      -0.00013846       0.00000000
Si      -2.71428867      -2.71565703      -0.00006923       0.00000000
