10
Lattice="16.28999089631971 0.0 0.0 0.0 16.28999089631971 0.0 0.0 0.0 34.61538196595647" Properties=species:S:1:pos:R:3:initial_magmoms:R:1 pbc="T T T"
Si       0.38390643      -2.09062602      -1.07768129       0.00000000
Si       2.10522186       1.08237276      -0.33538862       0.00000000
Si      -0.88796790      -0.28629675       2.22012799       0.00000000
Si      -1.79198145       1.56538755      -0.51362332       0.00000000
Si       0.95355144       3.19701024       0.45218099       0.00000000
Si      -3.55635135       0.13712922      -1.04649281       0.00000000
Si      -0.88009983      -1.85991075      -3.15460537       0.00000000
Si       2.51309088      -2.75838570       0.66482340       0.00000000
Si      -0.25444980      -2.41212546       2.98194375       0.00000000
Si       0.28359261       1.07448840       3.68674793       0.00000000
