10
Lattice="16.28999089631971 0.0 0.0 0.0 16.28999089631971 0.0 0.0 0.0 34.61538196595647" Properties=species:S:1:pos:R:3:initial_magmoms:R:1 pbc="T T T"
Si      -1.30396498       1.41938028       1.32635833       0.00000000
Si       1.44516735      -1.31307174       1.31064986       0.00000000
Si       1.09369431       1.58623875      -1.39597479       0.00000000
Si      -0.83045605      -1.91671398      -1.37875660       0.00000000
Si       1.17744120       0.02904507      -3.16558334       0.00000000
Si      -0.60634149       3.40364889      -1.42699019       0.00000000
Si      -2.63082590       0.05839965       2.68277322       0.00000000
Si       0.08430727      -2.65790898       2.67893091       0.00000000
Si      -2.60914391       2.77193898      -0.17020739       0.00000000
Si      -2.65594508      -2.76744294      -0.07126273       0.00000000
