10
Lattice="16.28999089631971 0.0 0.0 0.0 16.28999089631971 0.0 0.0 0.0 34.61538196595647" Properties=species:S:1:pos:R:3:initial_magmoms:R:1 pbc="T T T"
Si       1.50798159       1.12488966      -1.35123785       0.00000000
Si       1.48991598      -1.13709087       1.41014837       0.00000000
Si      -0.76131315      -1.81138284      -1.30332137       0.00000000
Si      -1.22868954       1.56872700       1.39280606       0.00000000
Si      -2.65995989      -2.52585409      -0.09087581       0.00000000
Si       2.79467982      -2.43376510      -0.05101618       0.00000000
Si       0.12792537      -2.49288314       2.76184864       0.00000000
Si      -2.58954962       0.22388976       2.76108710       0.00000000
Si       1.03671189      -3.48194515      -1.14395697       0.00000000
Si       3.27692898      -0.49764321      -1.93893813       0.00000000
