10
Lattice="16.28999089631971 0.0 0.0 0.0 16.28999089631971 0.0 0.0 0.0 34.61538196595647" Properties=species:S:1:pos:R:3:initial_magmoms:R:1 pbc="T T T"
Si       0.85551822       1.16771185      -1.81350087       0.00000000
Si      -1.14938982      -1.72887399      -1.15380056       0.00000000
Si      -1.52513496       0.51005833       1.79972394       0.00000000
Si       2.24383347      -0.25093116       0.93361199       0.00000000
Si      -1.68031350      -2.88544770       0.80920424       0.00000000
Si      -0.21150936      -0.55928457       3.44409397       0.00000000
Si       0.00255753      -2.67885792       2.40272424       0.00000000
Si      -3.17273814      -1.26364788       1.67642389       0.00000000
Si       0.08720037      -2.32780842      -3.03898993       0.00000000
Si       0.71154720      -0.15161103      -3.77075951       0.00000000
