10
Lattice="16.28999089631971 0.0 0.0 0.0 16.28999089631971 0.0 0.0 0.0 34.61538196595647" Properties=species:S:1:pos:R:3:initial_magmoms:R:1 pbc="T T T"
Si       1.38658851      -1.25242407       1.39124144       0.00000000
Si      -1.15753482      -1.60366905      -1.35721593       0.00000000
Si       1.82548902       0.85072896      -1.30749387       0.00000000
Si      -1.34213310       1.47509208       1.36805258       0.00000000
Si      -0.02469564       0.92354526      -2.94959362       0.00000000
Si       2.66984208      -2.64020989      -0.10176928       0.00000000
Si       0.02648754      -2.60690173       2.75237440       0.00000000
Si       2.65594508       2.76744294       0.07126273       0.00000000
Si      -2.68988625       0.10884978       2.74960517       0.00000000
Si      -2.73136059      -2.74483405      -0.11382236       0.00000000
