10
Lattice="16.28999089631971 0.0 0.0 0.0 16.28999089631971 0.0 0.0 0.0 34.61538196595647" Properties=species:S:1:pos:R:3:initial_magmoms:R:1 pbc="T T T"
Si      -1.35946566      -1.33843533      -1.38233144       0.00000000
Si      -1.24717869       1.42104349       1.41736222       0.00000000
Si       1.35500220       1.37785870      -1.37994297       0.00000000
Si       1.38505725      -1.41482464       1.54024690       0.00000000
Si       0.56716893       2.17007398       2.88733985       0.00000000
Si      -2.70475902      -2.68910989       0.01869232       0.00000000
Si       2.72104902      -2.69495800      -0.00630000       0.00000000
Si       2.42274654       0.33590143       2.94933604       0.00000000
Si      -0.00076563      -2.69626120      -2.74347825       0.00000000
Si      -2.69518050       2.74804318      -0.01045385       0.00000000
