10
Lattice="16.28999089631971 0.0 0.0 0.0 16.28999089631971 0.0 0.0 0.0 34.61538196595647" Properties=species:S:1:pos:R:3:initial_magmoms:R:1 pbc="T T T"
Si      -1.81434762      -0.74903049      -1.46997763       0.00000000
Si       0.83776212       1.99094751      -1.22088520       0.00000000
Si      -1.46709369       0.01962945       2.00153173       0.00000000
Si       1.85557761      -1.83417255       0.06199618       0.00000000
Si       2.14821117       0.57857193      -2.88100524       0.00000000
Si      -0.56716893      -2.17007398      -2.88733985       0.00000000
Si       3.43971495      -0.85675626      -1.46426609       0.00000000
Si       0.81788832      -3.58489862      -1.34709296       0.00000000
Si      -3.58637382      -1.59536115      -0.14271930       0.00000000
Si      -2.69285103      -2.05162776       2.02863559       0.00000000
