10
Lattice="16.28999089631971 0.0 0.0 0.0 16.28999089631971 0.0 0.0 0.0 34.61538196595647" Properties=species:S:1:pos:R:3:initial_magmoms:R:1 pbc="T T T"
Si       1.57407012      -1.07958132      -1.53747766       0.00000000
Si      -1.85544729      -1.62485649       0.05839618       0.00000000
Si       1.80472023      -0.64620216       1.60258097       0.00000000
Si      -0.73809990       2.04307225       1.52764689       0.00000000
Si      -1.59842367       1.08892460      -1.90166630       0.00000000
Si      -1.54556262       2.99870881      -0.49185024       0.00000000
Si       0.39139983      -1.78014906       2.98743517       0.00000000
Si       2.46648586      -2.47042152       0.28090398       0.00000000
Si      -0.87822648      -3.19030920       1.54377767       0.00000000
Si      -2.95285572      -0.89765460      -1.95480094       0.00000000
