10
Lattice="16.28999089631971 0.0 0.0 0.0 16.28999089631971 0.0 0.0 0.0 34.61538196595647" Properties=species:S:1:pos:R:3:initial_magmoms:R:1 pbc="T T T"
Si       1.35778779      -1.35671265       1.36076604       0.00000000
Si      -1.35874890       1.35780408       1.36059296       0.00000000
Si       1.34775315       1.36624230      -1.38155259       0.00000000
Si      -1.35138582      -1.36765953      -1.38073913       0.00000000
Si      -2.71518462      -2.71275741       0.00031154       0.00000000
Si       2.71500543       2.71699281       0.00443077       0.00000000
Si       2.71637379      -2.71575151       0.00276923       0.00000000
Si       2.71435383       0.00097740       2.71897054       0.00000000
Si      -0.00008145      -2.71473339       2.71903977       0.00000000
Si      -2.71661814       0.00144981       2.71858977       0.00000000
