10
Lattice="16.28999089631971 0.0 0.0 0.0 16.28999089631971 0.0 0.0 0.0 34.61538196595647" Properties=species:S:1:pos:R:3:initial_magmoms:R:1 pbc="T T T"
Si       1.35653963       1.35668007      -1.35775450       0.00000000
Si      -1.35863487       1.35472527       1.35910450       0.00000000
Si       1.35391077      -1.35972630       1.35969296       0.00000000
Si      -1.35848826      -1.35863487      -1.35747758       0.00000000
Si       2.71350090      -0.00066789      -2.71509362       0.00000000
Si       2.71273202       2.71593396      -0.00110769       0.00000000
Si      -0.00136836       2.71430496      -2.71540516       0.00000000
Si       2.71264405      -2.71707426      -0.00183462       0.00000000
Si      -0.00135207      -2.71562445      -2.71516285       0.00000000
Si      -2.71647153      -0.00037467      -2.71502439       0.00000000
