10
Lattice="16.28999089631971 0.0 0.0 0.0 16.28999089631971 0.0 0.0 0.0 34.61538196595647" Properties=species:S:1:pos:R:3:initial_magmoms:R:1 pbc="T T T"
Si      -1.68360408      -0.99224019      -1.37077132       0.00000000
Si       1.30517893      -1.35255870       1.49656572       0.00000000
Si      -1.37389860       1.35847197       1.47039648       0.00000000
Si       2.00280241       0.63170991      -1.25678280       0.00000000
Si       2.60914391      -2.77193898       0.17020739       0.00000000
Si       2.83085081       2.58499494      -0.03306809       0.00000000
Si      -2.85733116      -2.61350244       0.05176733       0.00000000
Si      -2.82393666       2.70511740       0.09135351       0.00000000
Si       2.69243142       0.00529425       2.85017676       0.00000000
Si      -0.02000412       2.71427238       2.85062676       0.00000000
