10
Lattice="16.28999089631971 0.0 0.0 0.0 16.28999089631971 0.0 0.0 0.0 34.61538196595647" Properties=species:S:1:pos:R:3:initial_magmoms:R:1 pbc="T T T"
Si       1.36011726      -1.35710361      -1.36080066       0.00000000
Si      -1.35635427       1.35892809      -1.36284297       0.00000000
Si      -1.35644386      -1.35646830       1.38281605       0.00000000
Si       1.36761066       1.35791811       1.38575836       0.00000000
Si      -2.71392370       2.71309950      -0.00602308       0.00000000
Si      -2.71517552      -2.71673217      -0.00204231       0.00000000
Si      -2.71254665      -0.00032580      -2.71948977       0.00000000
Si       2.71797021       2.71489140      -0.00287308       0.00000000
Si       0.00172674       2.71490769      -2.71962823       0.00000000
Si       0.00249237      -2.71598283      -2.71955900       0.00000000
