10
Lattice="16.28999089631971 0.0 0.0 0.0 16.28999089631971 0.0 0.0 0.0 34.61538196595647" Properties=species:S:1:pos:R:3:initial_magmoms:R:1 pbc="T T T"
Si      -1.40308051      -1.43384580       1.28177370       0.00000000
Si       1.69448580       0.93090834       1.40836222       0.00000000
Si      -1.35595516       1.33136541      -1.48880841       0.00000000
Si       1.34219826      -1.38383550      -1.50175457       0.00000000
Si       3.09508371      -1.21226922       1.64513156       0.00000000
Si       2.72117934       2.56966605      -0.01644232       0.00000000
Si      -1.01385702      -0.44905014       3.63610560       0.00000000
Si       2.56595193      -2.86708887      -0.11880006       0.00000000
Si      -2.72224538       2.80565928      -0.06642696       0.00000000
Si       0.00048870       2.68783371      -2.87162446       0.00000000
