10
Lattice="16.28999089631971 0.0 0.0 0.0 16.28999089631971 0.0 0.0 0.0 34.61538196595647" Properties=species:S:1:pos:R:3:initial_magmoms:R:1 pbc="T T T"
Si      -0.13274721      -0.91712700       2.12396641       0.00000000
Si      -2.11859595       0.55571706      -0.81045039       0.00000000
Si       0.86790255      -1.76417442      -1.30960448       0.00000000
Si       1.41679573       1.89605826      -0.00533077       0.00000000
Si       3.05552249      -0.76235571      -1.54775844       0.00000000
Si      -1.89573246      -0.05295879      -3.12718997       0.00000000
Si       2.68971425       1.54445490      -1.96362787       0.00000000
Si      -3.51644085      -1.21474530      -0.26068859       0.00000000
Si      -0.19174959      -1.69798815      -3.45811321       0.00000000
Si       0.53612086      -3.82704228      -0.07515004       0.00000000
