10
Lattice="16.28999089631971 0.0 0.0 0.0 16.28999089631971 0.0 0.0 0.0 34.61538196595647" Properties=species:S:1:pos:R:3:initial_magmoms:R:1 pbc="T T T"
Si       0.13274721       0.91712700      -2.12396641       0.00000000
Si       2.10767092      -0.28202877       0.98584663       0.00000000
Si      -1.04534559       1.49571522       1.54945459       0.00000000
Si      -0.35233641      -2.38912398      -0.09432697       0.00000000
Si      -2.88228744       0.07240905       1.74295469       0.00000000
Si       1.30902272      -1.14311817       3.02015915       0.00000000
Si       0.04623102       0.87770520       3.56597480       0.00000000
Si       1.00064976      -0.84704742      -3.43357089       0.00000000
Si      -3.51093483      -1.13906196      -0.17304239       0.00000000
Si       0.66886807      -2.90991528      -2.19911645       0.00000000
