10
Lattice="16.28999089631971 0.0 0.0 0.0 16.28999089631971 0.0 0.0 0.0 34.61538196595647" Properties=species:S:1:pos:R:3:initial_magmoms:R:1 pbc="T T T"
Si      -1.59316200      -1.04897826       1.39621221       0.00000000
Si      -1.09157661       0.61801002      -2.01652020       0.00000000
Si       1.14278815       1.91839185       0.86123118       0.00000000
Si       1.26279170      -2.02082337      -0.54581565       0.00000000
Si       2.06143990      -1.15973397      -2.58012817       0.00000000
Si      -2.92851846      -0.80529615      -1.82302011       0.00000000
Si      -0.04623102      -0.87770520      -3.56597480       0.00000000
Si      -2.74892121      -2.49678459      -0.16909624       0.00000000
Si       2.38367402       1.05700923       2.68618976       0.00000000
Si      -0.31644954      -1.98083142       3.23287079       0.00000000
