10
Lattice="16.28999089631971 0.0 0.0 0.0 16.28999089631971 0.0 0.0 0.0 34.61538196595647" Properties=species:S:1:pos:R:3:initial_magmoms:R:1 pbc="T T T"
Si       0.69159195      -1.27509975      -1.79854702       0.00000000
Si       1.68360408       0.99224019       1.37077132       0.00000000
Si      -1.17372708      -1.62126225       1.42253865       0.00000000
Si      -1.14947127       1.72828755      -1.39268144       0.00000000
Si      -1.65951117      -1.47378888      -2.30687419       0.00000000
Si       0.30970548       2.35071216       2.84116779       0.00000000
Si      -2.43584370      -0.33218568       2.85993280       0.00000000
Si       2.26543401       0.03772764      -3.06249378       0.00000000
Si      -3.09293343      -2.57372226       0.02239616       0.00000000
Si       3.68640649       1.62395010       0.11398852       0.00000000
