10
Lattice="16.28999089631971 0.0 0.0 0.0 16.28999089631971 0.0 0.0 0.0 34.61538196595647" Properties=species:S:1:pos:R:3:initial_magmoms:R:1 pbc="T T T"
Si       1.41332040       1.13394690      -1.38485421       0.00000000
Si       1.43368290      -1.27886274       1.28463293       0.00000000
Si      -1.31175225       1.45860660       1.28730177       0.00000000
Si      -1.26962631      -1.41016014      -1.44365751       0.00000000
Si       2.07508603      -0.69027246      -2.70653119       0.00000000
Si      -0.39139983       1.78014906      -2.98743517       0.00000000
Si      -2.24684712       0.15529257      -2.92903899       0.00000000
Si       0.05483214      -2.60944623       2.64910974       0.00000000
Si      -2.66165568       0.10673208       2.65257128       0.00000000
Si       0.36859383      -2.31894666      -2.96019285       0.00000000
