10
Lattice="16.28999089631971 0.0 0.0 0.0 16.28999089631971 0.0 0.0 0.0 34.61538196595647" Properties=species:S:1:pos:R:3:initial_magmoms:R:1 pbc="T T T"
Si       1.33599177      -1.28013336      -1.54654690       0.00000000
Si       1.03768929       1.75072607       1.40908914       0.00000000
Si      -0.76390326      -1.84728600       1.49562764       0.00000000
Si      -1.38505725       1.41482464      -1.54024690       0.00000000
Si      -2.62674621      -2.64469779       0.00048462       0.00000000
Si       2.62182663       2.72814236      -0.11717313       0.00000000
Si       2.63296899      -2.71847520      -0.11225775       0.00000000
Si      -2.63223594       2.83586813      -0.12288467       0.00000000
Si      -0.81788832       3.58489862       1.34709296       0.00000000
Si      -0.02860524      -2.63857275      -2.92254372       0.00000000
