10
Lattice="16.28999089631971 0.0 0.0 0.0 16.28999089631971 0.0 0.0 0.0 34.61538196595647" Properties=species:S:1:pos:R:3:initial_magmoms:R:1 pbc="T T T"
Si      -1.34789976      -1.59376473       1.10807361       0.00000000
Si       2.01745201       0.30762036       1.19364288       0.00000000
Si       0.63757431      -0.61654392      -2.20780491       0.00000000
Si      -1.22539896       2.05986791       0.48991177       0.00000000
Si      -0.94894137       1.88091086       2.82444367       0.00000000
Si       3.28602599       1.16074395      -0.69109649       0.00000000
Si      -3.27072249      -1.42607547      -0.35210786       0.00000000
Si      -1.49519394      -0.40762467       3.25654772       0.00000000
Si       1.42331173       2.11745795       2.66292821       0.00000000
Si       2.18468678       0.98860752      -2.82174367       0.00000000
