10
Lattice="16.28999089631971 0.0 0.0 0.0 16.28999089631971 0.0 0.0 0.0 34.61538196595647" Properties=species:S:1:pos:R:3:initial_magmoms:R:1 pbc="T T T"
Si       1.49147982       1.52927262      -0.98058509       0.00000000
Si      -1.88623539      -0.58948623      -1.29741986       0.00000000
Si       1.21593447      -2.04187005      -0.50379255       0.00000000
Si      -0.55389258       0.48982401       2.32975497       0.00000000
Si      -2.20380894      -2.72261286      -0.44349252       0.00000000
Si       3.35440422       1.29935556       0.47405792       0.00000000
Si      -0.18191043      -3.81233241       0.04596925       0.00000000
Si      -2.20354830      -0.95988825       3.15214767       0.00000000
Si       2.02711131       1.09146258      -3.24346310       0.00000000
Si      -1.53385011      -0.60009102      -3.67805947       0.00000000
