10
Lattice="16.28999089631971 0.0 0.0 0.0 16.28999089631971 0.0 0.0 0.0 34.61538196595647" Properties=species:S:1:pos:R:3:initial_magmoms:R:1 pbc="T T T"
Si       2.28463503       0.34210629      -0.40063865       0.00000000
Si      -0.57171547      -1.94351103      -1.21908520       0.00000000
Si      -1.49134528       1.77267780      -0.61795414       0.00000000
Si       0.18433275      -0.83896758       2.28710880       0.00000000
Si       2.70868002       1.44300078       1.64814310       0.00000000
Si       2.88874968      -2.00135682      -0.82166578       0.00000000
Si       0.89775330       2.95665129       2.02091636       0.00000000
Si       0.46663845      -3.14139618       1.94227017       0.00000000
Si      -0.50486457       3.73576941       0.27107321       0.00000000
Si      -3.61575676       1.11164589       0.17245393       0.00000000
