10
Lattice="16.28999089631971 0.0 0.0 0.0 16.28999089631971 0.0 0.0 0.0 34.61538196595647" Properties=species:S:1:pos:R:3:initial_magmoms:R:1 pbc="T T T"
Si      -1.66421898      -1.10491812      -1.27950435       0.00000000
Si       1.39699782      -1.28150172       1.42989646       0.00000000
Si      -1.30189680       1.41939657       1.44398839       0.00000000
Si       0.91020375       1.71194868      -1.46836598       0.00000000
Si      -3.36425478       0.71249202      -1.31051975       0.00000000
Si      -2.53620639       2.66577705      -0.08680504       0.00000000
Si       2.57992875       2.77250913      -0.10129851       0.00000000
Si       0.04250061      -2.63570571       2.79654366       0.00000000
Si       2.61180828      -2.82095559       0.09650428       0.00000000
Si      -2.75791329      -2.69115687       0.11647044       0.00000000
