10
Lattice="16.28999089631971 0.0 0.0 0.0 16.28999089631971 0.0 0.0 0.0 34.61538196595647" Properties=species:S:1:pos:R:3:initial_magmoms:R:1 pbc="T T T"
Si       0.79864820       0.86108940      -2.03431252       0.00000000
Si      -0.98648072      -1.96309161      -0.88902735       0.00000000
Si       1.40261787      -0.77911812       1.74984315       0.00000000
Si      -1.26279170       2.02082337       0.54581565       0.00000000
Si       2.35548513       1.34309421       2.15003181       0.00000000
Si      -1.30902272       1.14311817      -3.02015915       0.00000000
Si      -2.85595370       0.97184511       1.94202786       0.00000000
Si      -1.66135913      -1.24600581      -3.11448612       0.00000000
Si       0.50486457      -3.73576941      -0.27107321       0.00000000
Si       3.22225974       2.04330357       0.05721926       0.00000000
