10
Lattice="16.28999089631971 0.0 0.0 0.0 16.28999089631971 0.0 0.0 0.0 34.61538196595647" Properties=species:S:1:pos:R:3:initial_magmoms:R:1 pbc="T T T"
Si       1.35678148      -1.35658233      -1.36083527       0.00000000
Si      -1.35744108       1.35881310      -1.36041989       0.00000000
Si      -1.35193506      -1.35430173       1.37610066       0.00000000
Si       1.35404964       1.35121870       1.38105067       0.00000000
Si       2.71757477      -2.71119357      -0.00308077       0.00000000
Si      -2.71653207      -2.71274112       0.00010385       0.00000000
Si      -0.00088445      -2.71384884      -2.71834746       0.00000000
Si       2.71430048       0.00113474      -2.71813977       0.00000000
Si      -2.71601079       0.00131543      -2.71793208       0.00000000
Si      -0.00090596       2.71633211      -2.71810516       0.00000000
