10
Lattice="16.290000149 0.0 0.0 0.0 16.290000149 0.0 0.0 0.0 29.1751946751" Properties=species:S:1:pos:R:3:initial_magmoms:R:1 pbc="T T T"
Si       1.22403061      -1.53254692       1.24303834       0.00000000
Si      -1.38357487      -1.35327547      -1.29529112       0.00000000
Si      -1.05855679       1.46481310       1.48107876       0.00000000
Si       1.37512036       1.31976694      -1.35687995       0.00000000
Si       0.76033576       2.21263814       2.86672545       0.00000000
Si      -2.37104210       0.10393020       2.86532504       0.00000000
Si      -0.01858689       2.60020982      -2.71842794       0.00000000
Si      -0.02239875      -2.69790095      -2.63247782       0.00000000
Si      -2.50851341       2.81530299       0.19634906       0.00000000
Si      -2.73952190       0.00216657      -2.60047263       0.00000000
