10
Lattice="16.290000149 0.0 0.0 0.0 16.290000149 0.0 0.0 0.0 29.1751946751" Properties=species:S:1:pos:R:3:initial_magmoms:R:1 pbc="T T T"
Si      -1.08421354      -1.16312230       1.70639879       0.00000000
Si       0.88286914      -1.77759740      -1.28096610       0.00000000
Si       1.87419710       1.46043109       0.15681667       0.00000000
Si      -1.59839110       1.30088683      -1.21555531       0.00000000
H        0.47760651       2.29662938       1.78543439       0.00000000
H       -1.23851242      -0.36562905       2.98100469       0.00000000
H        2.59320512       1.54466668       1.48119546       0.00000000
Si       1.99668161      -0.33559029      -2.83784201       0.00000000
Si      -3.29419641      -1.08335017       0.89722476       0.00000000
Si      -0.28590579       2.66176973      -2.59980160       0.00000000
