10
Lattice="16.290000149 0.0 0.0 0.0 16.290000149 0.0 0.0 0.0 29.1751946751" Properties=species:S:1:pos:R:3:initial_magmoms:R:1 pbc="T T T"
Si      -0.71325766       2.03841659       0.77337606       0.00000000
Si       2.04468824      -0.62449996       0.90650247       0.00000000
Si      -1.22663701      -1.78238666       0.86685338       0.00000000
Si      -0.65490688      -0.68456445      -2.13962125       0.00000000
Si      -0.70397236      -2.82641277      -1.15259524       0.00000000
H        0.65899567       2.29954529      -2.13708301       0.00000000
Si      -1.33703434       1.52119279       2.95340496       0.00000000
Si       1.04959729       3.52403202       0.43701524       0.00000000
Si      -3.55452690       0.78004666      -0.75286590       0.00000000
Si      -3.45409905      -1.25398792       0.60100901       0.00000000
