10
Lattice="16.290000149 0.0 0.0 0.0 16.290000149 0.0 0.0 0.0 29.1751946751" Properties=species:S:1:pos:R:3:initial_magmoms:R:1 pbc="T T T"
Si       1.36853920       1.34827444       1.33753680       0.00000000
Si       1.44275644      -1.33183132      -1.28172465       0.00000000
Si      -1.34915410      -1.38765552       1.33496938       0.00000000
Si      -1.37699371       1.33960816      -1.35845541       0.00000000
Si       0.11771154      -2.66801076      -2.61835702       0.00000000
Si       0.03376917       2.74349667      -2.61608136       0.00000000
Si       0.00317655       2.69474069       2.68788151       0.00000000
Si       2.69345378      -0.03694572       2.69540871       0.00000000
Si      -2.71142165      -0.02565675       2.68102534       0.00000000
Si      -2.79630885      -0.08970903      -2.59332470       0.00000000
