10
Lattice="16.290000149 0.0 0.0 0.0 16.290000149 0.0 0.0 0.0 29.1751946751" Properties=species:S:1:pos:R:3:initial_magmoms:R:1 pbc="T T T"
Si      -1.36474526       1.44371104      -1.17786096       0.00000000
Si       1.79418062      -1.05164983      -1.00540638       0.00000000
Si       0.85349827       1.65925543       1.39953409       0.00000000
Si      -0.92017324      -1.74061910       1.26664108       0.00000000
H        0.23324022       2.96016996       0.95566268       0.00000000
H        1.12526434      -2.31678011      -1.77571905       0.00000000
Si       2.64502361      -2.08898075       0.88214119       0.00000000
Si      -2.62065377       0.08891685      -2.60916683       0.00000000
Si       0.09936900       1.06994024       3.55050449       0.00000000
Si       0.74300320      -3.37633059       1.36531159       0.00000000
