10
Lattice="16.290000149 0.0 0.0 0.0 16.290000149 0.0 0.0 0.0 29.1751946751" Properties=species:S:1:pos:R:3:initial_magmoms:R:1 pbc="T T T"
Si      -1.27665106       1.36008469       1.41957745       0.00000000
Si       1.35355892      -1.33187041       1.37727342       0.00000000
Si       1.33826261       1.36857178      -1.36726632       0.00000000
Si      -1.38110857      -1.36068742      -1.33488186       0.00000000
Si       2.66060337       0.13835097       2.65885219       0.00000000
Si       0.01444109      -2.69368022      -2.68831914       0.00000000
Si      -2.67181415       2.70958088       0.06581924       0.00000000
Si      -0.05357292      -2.62937544       2.75909816       0.00000000
Si      -2.68717562       0.01550808      -2.71387661       0.00000000
Si      -2.56949666       0.00136836       2.86628783       0.00000000
