10
Lattice="16.290000149 0.0 0.0 0.0 16.290000149 0.0 0.0 0.0 29.1751946751" Properties=species:S:1:pos:R:3:initial_magmoms:R:1 pbc="T T T"
Si       1.25812558       1.36699165      -1.42667869       0.00000000
Si       1.37516923      -1.26529318       1.41538789       0.00000000
Si      -0.80975962      -1.85929175      -1.17903526       0.00000000
Si      -1.42796512       1.37508778       1.29181927       0.00000000
Si      -2.68486895      -2.66237246       0.01367150       0.00000000
Si      -0.05243751      -2.65649177       2.69493024       0.00000000
Si       2.66232359      -2.71371854       0.08734470       0.00000000
Si       2.64626165       2.74672209      -0.08624188       0.00000000
Si      -0.08425188       2.74450665       2.65408496       0.00000000
Si      -0.19468179       2.78317911      -2.64237988       0.00000000
