10
Lattice="16.290000149 0.0 0.0 0.0 16.290000149 0.0 0.0 0.0 29.1751946751" Properties=species:S:1:pos:R:3:initial_magmoms:R:1 pbc="T T T"
Si       1.42411742       1.44326143       1.16400274       0.00000000
Si       1.43167924      -1.24374151      -1.37272208       0.00000000
Si      -1.31885470       1.38398212      -1.36216066       0.00000000
Si      -1.63947449      -1.05839389       1.43083907       0.00000000
H        0.24571348      -2.69636969       1.69254057       0.00000000
H       -1.09999855       1.40587588       2.80452394       0.00000000
Si      -0.06667497       2.51341670       2.59093234       0.00000000
Si      -2.63101421       2.47792079       0.26035944       0.00000000
Si       2.86218561      -2.45374643       0.01286626       0.00000000
Si      -3.31885947       0.61882453       1.68209585       0.00000000
