10
Lattice="16.290000149 0.0 0.0 0.0 16.290000149 0.0 0.0 0.0 29.1751946751" Properties=species:S:1:pos:R:3:initial_magmoms:R:1 pbc="T T T"
Si       1.34729704       1.35661492       1.36195644       0.00000000
Si      -1.35325918       1.36770841      -1.35448759       0.00000000
Si      -1.35975889      -1.34817670       1.36825828       0.00000000
Si       1.37797111      -1.34884459      -1.34941110       0.00000000
Si      -0.05119947      -2.75279826      -2.59091483       0.00000000
Si       2.67765248      -2.69749370       0.07002047       0.00000000
Si      -0.02319696       2.72002277       2.69628397       0.00000000
Si      -2.67388949       0.02731833      -2.74823624       0.00000000
Si       2.69231348      -0.00159642       2.73234451       0.00000000
Si       2.69811272       2.73259865       0.01601718       0.00000000
