10
Lattice="16.290000149 0.0 0.0 0.0 16.290000149 0.0 0.0 0.0 29.1751946751" Properties=species:S:1:pos:R:3:initial_magmoms:R:1 pbc="T T T"
Si      -0.93147361       0.81546438       1.99406621       0.00000000
Si       1.36183261       1.38813933      -1.32907599       0.00000000
Si      -1.86757847      -0.89769955      -1.12432448       0.00000000
Si       1.84035136      -1.17419624       0.93453984       0.00000000
H        2.64278048       1.43368617      -0.50846529       0.00000000
H       -2.91439017       0.21538964      -1.10457287       0.00000000
Si       0.52493874      -2.60142832       2.27928291       0.00000000
Si       1.97031299      -0.13406670      -3.07932510       0.00000000
Si       0.40336973       2.79333103       2.47720743       0.00000000
Si      -0.64625705      -1.00950711       3.56386673       0.00000000
