10
Lattice="16.290000149 0.0 0.0 0.0 16.290000149 0.0 0.0 0.0 29.1751946751" Properties=species:S:1:pos:R:3:initial_magmoms:R:1 pbc="T T T"
Si       1.35728281      -1.36425493       1.33596134       0.00000000
Si      -1.35672895      -1.36656811      -1.33841206       0.00000000
Si       1.37575567       1.33480261      -1.36125623       0.00000000
Si      -1.37821546       1.34237746       1.36070190       0.00000000
Si       2.64859112       0.07341903       2.65164592       0.00000000
Si       0.02723688      -2.72373201      -2.67128082       0.00000000
Si      -2.68564436      -0.00983916      -2.71378908       0.00000000
Si      -2.71057620       2.69421941      -0.00898596       0.00000000
Si      -2.70203699      -2.71987454       0.03964909       0.00000000
Si       0.03332934       2.70673013      -2.71574382       0.00000000
