10
Lattice="16.290000149 0.0 0.0 0.0 16.290000149 0.0 0.0 0.0 29.1751946751" Properties=species:S:1:pos:R:3:initial_magmoms:R:1 pbc="T T T"
Si      -1.43338969       1.32019048      -1.28125785       0.00000000
Si      -1.37850868      -1.31823568       1.36373612       0.00000000
Si       1.33424875       1.40457268       1.33747845       0.00000000
Si       1.34669431      -1.27878130      -1.45960581       0.00000000
Si      -0.07716573       2.66084120      -2.59533488       0.00000000
Si       2.68468976      -2.61643466      -0.03854043       0.00000000
Si      -0.02433726      -2.68848533       2.70384034       0.00000000
Si       2.69482214       0.06256989       2.70004757       0.00000000
Si      -2.75237472      -2.64420911       0.00087526       0.00000000
Si      -2.74820448       0.06095718       2.68411791       0.00000000
