10
Lattice="16.290000149 0.0 0.0 0.0 16.290000149 0.0 0.0 0.0 29.1751946751" Properties=species:S:1:pos:R:3:initial_magmoms:R:1 pbc="T T T"
Si       1.36057339      -1.34200279       1.36256912       0.00000000
Si       1.35653347       1.37083609      -1.34430545       0.00000000
Si      -1.35723394       1.35242839       1.36332767       0.00000000
Si      -1.33424875      -1.40457268      -1.33747845       0.00000000
Si       2.70627401      -2.67170663      -0.02272748       0.00000000
Si      -2.76763845      -0.08438220      -2.61873630       0.00000000
Si       0.01039302       2.71624349      -2.70847920       0.00000000
Si       0.01066995      -2.73155609       2.69368737       0.00000000
Si      -2.72494235       2.70192458       0.02441964       0.00000000
Si       2.71406063       2.71873586       0.02237737       0.00000000
