10
Lattice="16.290000149 0.0 0.0 0.0 16.290000149 0.0 0.0 0.0 29.1751946751" Properties=species:S:1:pos:R:3:initial_magmoms:R:1 pbc="T T T"
Si       0.90979651       0.07020990      -1.21488428       0.00000000
H       -1.27578394      -1.76467943      -0.42899206       0.00000000
H        1.88204888       0.42746589       1.23183507       0.00000000
Si      -1.82922041      -2.02140983       0.94895238       0.00000000
Si       1.15755112       2.94257350       0.23558970       0.00000000
Si       0.04722471       1.51242877      -2.79982673       0.00000000
Si       1.23981562      -2.04959153      -2.15353782       0.00000000
Si       2.79404454       1.41657841      -0.82653327       0.00000000
Si      -2.67781538      -0.14610501       2.06461183       0.00000000
H       -2.91856530      -0.93972124      -1.54812336       0.00000000
