10
Lattice="16.290000149 0.0 0.0 0.0 16.290000149 0.0 0.0 0.0 29.1751946751" Properties=species:S:1:pos:R:3:initial_magmoms:R:1 pbc="T T T"
Si      -2.24492492       0.50635836      -0.27938166       0.00000000
Si       0.93147361      -0.81546438      -1.99406621       0.00000000
Si       0.28521656      -1.82497149       1.56980052       0.00000000
Si       1.33484334       1.97786666       0.48314122       0.00000000
Si       2.96782626       0.79547329       1.69839457       0.00000000
Si       1.63268807      -0.61181168       3.05034829       0.00000000
Si       2.77182498      -1.98966062      -1.05952637       0.00000000
Si      -0.93610486      -1.71316393      -3.11839068       0.00000000
Si      -2.97468435       1.13979502       1.89950590       0.00000000
Si       1.45641235      -3.41689269       0.28521670       0.00000000
