10
Lattice="16.290000149 0.0 0.0 0.0 16.290000149 0.0 0.0 0.0 29.1751946751" Properties=species:S:1:pos:R:3:initial_magmoms:R:1 pbc="T T T"
Si      -1.39370725       1.28044288      -1.36154799       0.00000000
Si       1.43944957      -1.36989127      -1.23460671       0.00000000
Si      -1.37512036      -1.31976694       1.35687995       0.00000000
Si       0.86687236       1.89501572       1.07131315       0.00000000
Si      -2.43367715       0.14504616       2.83795871       0.00000000
Si       0.06037074      -2.72174951      -2.57794938       0.00000000
Si      -2.58406643       2.72857502       0.05280710       0.00000000
Si      -0.01052334       2.61713513      -2.70179808       0.00000000
Si       2.77897629      -0.04083903      -2.61129662       0.00000000
Si       2.70464501       2.70875009      -0.09338980       0.00000000
