10
Lattice="16.290000149 0.0 0.0 0.0 16.290000149 0.0 0.0 0.0 29.1751946751" Properties=species:S:1:pos:R:3:initial_magmoms:R:1 pbc="T T T"
Si       1.53717328      -1.27153225      -1.19787514       0.00000000
Si       1.39535254       1.32167287       1.36432546       0.00000000
Si      -1.21717252      -1.43420419       1.44132755       0.00000000
Si      -1.47170377       1.20899494      -1.45333315       0.00000000
H        0.35556183      -1.80823889      -2.25004936       0.00000000
Si      -2.67056633       2.68266980      -0.02506149       0.00000000
Si       2.85527962       2.50036841      -0.05120247       0.00000000
Si      -2.64860741      -0.06253731       2.72508864       0.00000000
Si      -0.13817178       2.53956215      -2.84986219       0.00000000
Si       0.06511113       2.76226275       2.67754474       0.00000000
