10
Lattice="16.290000149 0.0 0.0 0.0 16.290000149 0.0 0.0 0.0 29.1751946751" Properties=species:S:1:pos:R:3:initial_magmoms:R:1 pbc="T T T"
Si       0.81050896      -0.98507260      -1.94417662       0.00000000
Si      -1.33353199      -1.33056721       1.39652904       0.00000000
Si       1.58943160       1.13153599       1.34115452       0.00000000
Si      -1.50071626       1.31087260      -1.29348226       0.00000000
H        1.26001522       0.29898666      -2.60913766       0.00000000
H        0.68719366       1.87199795       2.31913622       0.00000000
Si      -2.53325792       2.79987636       0.17537210       0.00000000
Si      -1.06490989      -1.69564241      -3.21942438       0.00000000
Si      -2.53239455       0.14310765       2.82480070       0.00000000
Si      -2.89727427      -2.45480528      -0.06990377       0.00000000
