10
Lattice="16.290000149 0.0 0.0 0.0 16.290000149 0.0 0.0 0.0 29.1751946751" Properties=species:S:1:pos:R:3:initial_magmoms:R:1 pbc="T T T"
Si       1.35309628       1.39740508      -1.32025050       0.00000000
Si      -1.35190711       1.36899532       1.35833871       0.00000000
Si       1.37647243      -1.34739478       1.35839706       0.00000000
Si      -1.36225126      -1.36782244      -1.36260704       0.00000000
Si       2.73518877       0.04139289      -2.64448633       0.00000000
Si      -2.70852855      -2.69677694       0.01762182       0.00000000
Si       2.68985369       2.72269433       0.08349941       0.00000000
Si       0.02104668      -2.69200397       2.73272378       0.00000000
Si      -2.69883600       0.02099781       2.72610102       0.00000000
Si      -2.71717365       2.71673219      -0.01385822       0.00000000
