10
Lattice="16.290000149 0.0 0.0 0.0 16.290000149 0.0 0.0 0.0 29.1751946751" Properties=species:S:1:pos:R:3:initial_magmoms:R:1 pbc="T T T"
Si      -1.88424803      -1.34636851      -0.38835102       0.00000000
Si       0.52450542       1.25373706      -1.93364438       0.00000000
Si       1.92309968      -1.50164479       0.30470573       0.00000000
H       -0.91199566      -0.98911252       2.05836833       0.00000000
Si      -1.63649342       1.52599509       1.06212296       0.00000000
H       -2.79404454      -1.41657841       0.82653327       0.00000000
Si       0.17545959       2.85143421       1.66602032       0.00000000
Si      -2.74681983       0.09585036      -1.97329347       0.00000000
Si      -0.03064149      -1.84446785       2.94409807       0.00000000
Si       1.54015435      -0.37064637      -3.25840244       0.00000000
