10
Lattice="16.290000149 0.0 0.0 0.0 16.290000149 0.0 0.0 0.0 29.1751946751" Properties=species:S:1:pos:R:3:initial_magmoms:R:1 pbc="T T T"
Si      -1.35487352       1.40810761      -1.31489685       0.00000000
Si       1.17421579       1.46642581       1.45001885       0.00000000
Si      -1.48700986      -1.20071962       1.43427299       0.00000000
Si       1.00696636      -1.24069528      -1.84139241       0.00000000
Si      -2.46349600      -0.30028986      -2.56178632       0.00000000
Si      -1.04977648      -2.24951870      -2.56552074       0.00000000
Si       2.40324743       0.49516713      -2.75583054       0.00000000
Si      -0.12802311      -2.53988795       2.81483153       0.00000000
Si       2.54830988       0.11552868       2.81054570       0.00000000
Si       2.47438586       2.94980952       0.17663451       0.00000000
