10
Lattice="16.290000149 0.0 0.0 0.0 16.290000149 0.0 0.0 0.0 29.1751946751" Properties=species:S:1:pos:R:3:initial_magmoms:R:1 pbc="T T T"
Si      -0.74754811       1.31898502      -1.78983984       0.00000000
Si      -1.50793273      -1.85335241      -0.05948822       0.00000000
Si       1.98997013      -0.89094083      -0.98087004       0.00000000
Si      -0.63685756       1.06666921       2.04611475       0.00000000
H        2.44736075       1.38750076       1.03067210       0.00000000
H        1.23033484      -0.77960683       2.76907608       0.00000000
Si      -2.50302368       2.29517957      -0.52897545       0.00000000
Si       0.79389316      -2.03982942      -2.66961784       0.00000000
Si      -0.63988750      -0.41169717      -3.59703893       0.00000000
Si       2.55627569      -2.62958069       0.54207512       0.00000000
