10
Lattice="16.290000149 0.0 0.0 0.0 16.290000149 0.0 0.0 0.0 29.1751946751" Properties=species:S:1:pos:R:3:initial_magmoms:R:1 pbc="T T T"
Si       1.35928160      -1.24333426       1.45293403       0.00000000
Si      -1.17119579       1.59192121       1.28458382       0.00000000
Si       1.31541263       1.42723207      -1.34474307       0.00000000
Si      -1.45828570      -1.38367261      -1.34876925       0.00000000
Si      -0.52493874       2.60142832      -2.27928291       0.00000000
Si       2.80382994      -2.43801029       0.09569464       0.00000000
Si      -1.45641235       3.41689269      -0.28521670       0.00000000
Si       0.00238811      -2.59625135      -2.68872759       0.00000000
Si      -2.64835166       0.28421163       2.65617099       0.00000000
Si       0.01352396      -2.70427034       2.68645193       0.00000000
