10
Lattice="16.290000149 0.0 0.0 0.0 16.290000149 0.0 0.0 0.0 29.1751946751" Properties=species:S:1:pos:R:3:initial_magmoms:R:1 pbc="T T T"
Si       1.37539729      -1.34681486       1.33450258       0.00000000
Si       1.36472734       1.34753488      -1.34920688       0.00000000
Si      -1.34972425      -1.37027246      -1.35116162       0.00000000
Si      -1.34947990       1.34997838       1.37260538       0.00000000
Si       0.02114442      -2.70297366       2.66658362       0.00000000
Si       0.00187335       2.71301156      -2.68461389       0.00000000
Si      -2.73227286      -0.01121892      -2.67282711       0.00000000
Si      -2.71850780       2.69338211       0.00881091       0.00000000
Si       2.72461655       2.69048249       0.01441255       0.00000000
Si       2.72699489      -0.01446389      -2.69526283       0.00000000
