10
Lattice="16.290000149 0.0 0.0 0.0 16.290000149 0.0 0.0 0.0 29.1751946751" Properties=species:S:1:pos:R:3:initial_magmoms:R:1 pbc="T T T"
Si      -1.36472734      -1.34753488       1.34920688       0.00000000
Si      -1.36285399       1.36547668      -1.33540701       0.00000000
Si       1.35988921       1.34294761       1.36361942       0.00000000
Si       1.36226755      -1.36199877      -1.34605596       0.00000000
Si       0.01066995      -2.69434973       2.68370946       0.00000000
Si       2.71142165       0.02565675      -2.68102534       0.00000000
Si       0.00744453       2.72362286      -2.67306051       0.00000000
Si      -2.74856286       0.01545921      -2.65999002       0.00000000
Si      -0.00118917       2.69467553       2.71559795       0.00000000
Si      -2.71445159      -2.71780733      -0.00195474       0.00000000
