10
Lattice="16.290000149 0.0 0.0 0.0 16.290000149 0.0 0.0 0.0 29.1751946751" Properties=species:S:1:pos:R:3:initial_magmoms:R:1 pbc="T T T"
Si      -0.84574423      -0.93398716      -0.80815289       0.00000000
H        1.43909119       0.90797203       0.54578037       0.00000000
H        0.80808175      -0.75158803       1.65262890       0.00000000
Si       2.08727030       1.73405423      -0.53066762       0.00000000
Si      -1.08222616       2.75309148      -0.05624978       0.00000000
Si      -0.79337188       1.87056443       2.18633074       0.00000000
Si      -2.13600998       0.36315297      -2.23400301       0.00000000
Si       0.58380103      -2.37698795      -1.93329428       0.00000000
Si      -2.68351688      -1.74772154       0.35655005       0.00000000
Si       1.99352135      -1.26483706       2.45129986       0.00000000
