10
Lattice="16.290000149 0.0 0.0 0.0 16.290000149 0.0 0.0 0.0 29.1751946751" Properties=species:S:1:pos:R:3:initial_magmoms:R:1 pbc="T T T"
Si       2.22746204      -0.52839873       0.26584437       0.00000000
Si      -1.10333800       0.64577959       2.02700500       0.00000000
Si      -0.62258752      -1.80514379      -1.50905777       0.00000000
Si      -0.10042785       2.03403458      -1.35387491       0.00000000
Si      -2.41411286       1.94309239      -0.99166487       0.00000000
H       -0.73832797      -2.98054875       1.51754775       0.00000000
Si       2.75012670      -1.57242484      -1.75360425       0.00000000
Si      -3.16824213       1.35377720       1.15930554       0.00000000
Si       3.45409905       1.25398792      -0.60100901       0.00000000
Si      -1.47343051      -0.76781287      -3.39660534       0.00000000
