10
Lattice="16.290000149 0.0 0.0 0.0 16.290000149 0.0 0.0 0.0 29.1751946751" Properties=species:S:1:pos:R:3:initial_magmoms:R:1 pbc="T T T"
Si      -1.33507938      -1.37689597      -1.34340101       0.00000000
Si       1.34293458      -1.36368478       1.35699665       0.00000000
Si       1.33153158       1.35814618      -1.38141629       0.00000000
Si      -1.39062518       1.35923761       1.32186972       0.00000000
Si      -2.66451949       0.03220533      -2.65368818       0.00000000
Si      -0.03920189       2.71140536       2.68122957       0.00000000
Si       2.69415751      -0.00646713       2.70360694       0.00000000
Si       2.69168143       2.71210583      -0.02859169       0.00000000
Si       2.70440392      -2.71687880       0.00682700       0.00000000
Si       2.71090363      -0.00099369      -2.71591887       0.00000000
