10
Lattice="16.290000149 0.0 0.0 0.0 16.290000149 0.0 0.0 0.0 29.1751946751" Properties=species:S:1:pos:R:3:initial_magmoms:R:1 pbc="T T T"
Si       1.35425287       1.35615880      -1.33208104       0.00000000
Si       1.38989539      -1.45065709       1.19968401       0.00000000
Si      -1.37859013      -1.36655182      -1.33447340       0.00000000
Si      -1.30175020       1.34781832       1.42935114       0.00000000
Si      -0.02547756      -2.77405671       2.44298493       0.00000000
Si       2.66129732       2.66860502       0.11567965       0.00000000
Si      -0.02114442       2.70297366      -2.66658362       0.00000000
Si       2.70023042      -0.02764413      -2.67556958       0.00000000
Si      -2.63858906      -0.03603348       2.74378118       0.00000000
Si      -2.70650207       2.68823936       0.07311304       0.00000000
