10
Lattice="16.290000149 0.0 0.0 0.0 16.290000149 0.0 0.0 0.0 29.1751946751" Properties=species:S:1:pos:R:3:initial_magmoms:R:1 pbc="T T T"
Si       0.15429888      -0.79749325      -1.27460591       0.00000000
H       -1.40362786       2.02707875      -0.45910086       0.00000000
Si       0.92515798      -0.16464303       2.54340595       0.00000000
H       -1.29329569      -2.67032198       0.44028286       0.00000000
Si      -2.05568399      -0.71772112      -2.08377993       0.00000000
Si       1.02074770      -2.86751244      -0.47082929       0.00000000
Si      -0.79539184       1.46227186       2.64394367       0.00000000
Si       2.79490791       0.72729964       1.26316923       0.00000000
Si       0.87478930      -2.45726507       1.88238356       0.00000000
Si       1.23851242       0.36562905      -2.98100469       0.00000000
