10
Lattice="16.290000149 0.0 0.0 0.0 16.290000149 0.0 0.0 0.0 29.1751946751" Properties=species:S:1:pos:R:3:initial_magmoms:R:1 pbc="T T T"
Si       0.17834292      -1.38701369      -0.61192053       0.00000000
Si      -0.69395401       1.82909009       1.92040467       0.00000000
Si      -0.51072408       1.28153431      -2.39715070       0.00000000
Si      -2.53314389       0.94798027       0.73614559       0.00000000
Si      -2.45026037       0.25624170      -1.49283636       0.00000000
Si       1.21310002       2.61899219       0.79802910       0.00000000
Si       2.05224680      -0.77743374       2.05311972       0.00000000
Si       1.01270044      -2.63116082       1.10125273       0.00000000
Si       2.91757161       0.95065183       0.67131773       0.00000000
Si       2.07438491      -1.36999716      -1.94974908       0.00000000
