10
Lattice="16.290000149 0.0 0.0 0.0 16.290000149 0.0 0.0 0.0 29.1751946751" Properties=species:S:1:pos:R:3:initial_magmoms:R:1 pbc="T T T"
Si      -1.49079240       1.07015527       1.42692960       0.00000000
Si       1.55680599      -1.08261712       1.36545746       0.00000000
Si      -1.42411742      -1.44326143      -1.16400274       0.00000000
Si       1.31167407       1.49693698      -1.27040468       0.00000000
H       -2.52411598      -0.03738555       1.64052120       0.00000000
Si       1.97314582       0.72259183       2.85873145       0.00000000
Si      -0.33424311       0.90955216       3.45081285       0.00000000
Si       0.00756182      -2.68700294      -2.53672483       0.00000000
Si      -2.74297213      -0.05927931      -2.52616341       0.00000000
Si      -0.18148526       2.64129320      -2.63918811       0.00000000
