10
Lattice="16.290000149 0.0 0.0 0.0 16.290000149 0.0 0.0 0.0 29.1751946751" Properties=species:S:1:pos:R:3:initial_magmoms:R:1 pbc="T T T"
Si      -1.36664956      -1.34978941       1.35078526       0.00000000
Si       1.30429144       1.29505501       1.47492571       0.00000000
Si      -1.37114560       1.41226156      -1.30332888       0.00000000
Si       1.36386397      -1.34757397      -1.38954158       0.00000000
Si       2.66051540       2.63570573       0.16084868       0.00000000
Si       2.71262711      -2.71024877      -0.01443005       0.00000000
Si      -0.01469358      -2.66934458       2.75705881       0.00000000
Si      -2.72986193       0.02347389       2.69955451       0.00000000
Si      -2.71036280      -2.71920827      -0.01148044       0.00000000
Si      -2.78428683       0.11507256      -2.64539163       0.00000000
