10
Lattice="16.290000149 0.0 0.0 0.0 16.290000149 0.0 0.0 0.0 29.1751946751" Properties=species:S:1:pos:R:3:initial_magmoms:R:1 pbc="T T T"
Si      -2.04468824       0.62449996      -0.90650247       0.00000000
Si       1.01564893      -1.62438343      -1.32475806       0.00000000
Si      -0.52450542      -1.25373706       1.93364438       0.00000000
Si       1.50793273       1.85335241       0.05948822       0.00000000
Si      -3.27132525      -1.15788669      -0.03964909       0.00000000
Si       2.30182589      -0.18647701      -2.61012962       0.00000000
Si       2.54040923      -2.62551797       0.17782281       0.00000000
Si       0.76038463       3.17233743      -1.73035162       0.00000000
Si      -2.16099884       0.27225803       2.99576734       0.00000000
Si       0.87107518       2.92002162       2.10560297       0.00000000
