10
Lattice="16.290000149 0.0 0.0 0.0 16.290000149 0.0 0.0 0.0 29.1751946751" Properties=species:S:1:pos:R:3:initial_magmoms:R:1 pbc="T T T"
Si       1.38209248      -1.35601219      -1.32423583       0.00000000
Si       1.33675741       1.32528925       1.40374990       0.00000000
Si      -1.35309628      -1.39740508       1.32025050       0.00000000
Si      -1.32841693       1.39509190      -1.36913937       0.00000000
Si      -0.03104874      -2.65320119      -2.66629858       0.00000000
Si      -2.65834883       2.70915734       0.04974079       0.00000000
Si       2.70374906       0.04733874      -2.66647917       0.00000000
Si      -2.70500339      -0.02840976       2.67858921       0.00000000
Si      -2.75493225       0.03525156      -2.64730407       0.00000000
Si       2.68747535       2.72034734       0.09452763       0.00000000
