10
Lattice="16.290000149 0.0 0.0 0.0 16.290000149 0.0 0.0 0.0 29.1751946751" Properties=species:S:1:pos:R:3:initial_magmoms:R:1 pbc="T T T"
Si      -1.34640109      -1.33255459      -1.38877719       0.00000000
Si      -1.34428339       1.30316743       1.42255332       0.00000000
Si       1.30289050       1.35389449      -1.43350277       0.00000000
Si       1.34770429      -1.38492694       1.36166469       0.00000000
Si       2.69374538       2.64049499       0.00049598       0.00000000
Si      -2.69042384       2.64857483       0.05837956       0.00000000
Si       2.66332543      -0.10451664      -2.71968247       0.00000000
Si      -2.68837130      -2.75102265      -0.03022550       0.00000000
Si       0.01324377       2.65106720       2.78923614       0.00000000
Si       2.71208303      -0.05523939       2.74045521       0.00000000
