10
Lattice="16.290000149 0.0 0.0 0.0 16.290000149 0.0 0.0 0.0 29.1751946751" Properties=species:S:1:pos:R:3:initial_magmoms:R:1 pbc="T T T"
Si       1.29797092       1.28413941       1.50517163       0.00000000
Si      -1.33535647      -1.36502024       1.40721592       0.00000000
Si       1.48152664      -1.29854075      -1.33966659       0.00000000
Si      -1.35806473       1.38775684      -1.39480771       0.00000000
Si      -0.00511506      -2.55487443      -2.71151342       0.00000000
Si      -2.60973947       2.73083966       0.08929506       0.00000000
Si       2.69680952      -2.71277340       0.10987612       0.00000000
Si       2.36991809       2.38075127      -1.87374770       0.00000000
Si       2.28703457       3.07248983       0.35523425       0.00000000
Si       0.16477335       2.76664508      -2.66953031       0.00000000
