10
Lattice="16.290000149 0.0 0.0 0.0 16.290000149 0.0 0.0 0.0 29.1751946751" Properties=species:S:1:pos:R:3:initial_magmoms:R:1 pbc="T T T"
Si      -1.36806679       1.35782038      -1.32601260       0.00000000
Si      -1.37502262      -1.36047565       1.32639188       0.00000000
Si       1.34754139       1.36405945       1.35104492       0.00000000
Si       1.37531584      -1.36203949      -1.33246032       0.00000000
Si       2.66514176      -0.07403805       2.63145668       0.00000000
Si       0.00070047       2.70321149      -2.66707960       0.00000000
Si       0.00969255      -2.71774217      -2.67848710       0.00000000
Si      -2.70876638      -0.00449604      -2.69036140       0.00000000
Si      -2.68920209       2.72003906       0.06170554       0.00000000
Si       2.73517247       0.00000000      -2.67551123       0.00000000
