10
Lattice="16.290000149 0.0 0.0 0.0 16.290000149 0.0 0.0 0.0 29.1751946751" Properties=species:S:1:pos:R:3:initial_magmoms:R:1 pbc="T T T"
Si       1.32020677      -1.48885591      -1.20824401       0.00000000
Si       1.36063855       1.28261232       1.40952659       0.00000000
Si      -1.35071794      -1.39505808       1.30922227       0.00000000
Si      -1.38256489       1.32390421      -1.36571129       0.00000000
Si       2.69428457       2.62243062       0.08126750       0.00000000
Si      -2.69824304       2.64663756       0.03469222       0.00000000
Si      -2.67388949      -0.04398176       2.69457722       0.00000000
Si       0.03060891       2.70194211       2.69562752       0.00000000
Si       0.03339450      -2.75232461       2.64731340       0.00000000
Si      -2.68747535      -2.72034734      -0.09452763       0.00000000
