10
Lattice="16.290000149 0.0 0.0 0.0 16.290000149 0.0 0.0 0.0 29.1751946751" Properties=species:S:1:pos:R:3:initial_magmoms:R:1 pbc="T T T"
Si      -1.34017831      -1.34335486       1.37598971       0.00000000
Si       1.32615262      -1.37039626      -1.37059230       0.00000000
Si       1.34151409       1.32367654       1.40910355       0.00000000
Si      -1.35946567       1.33030657      -1.38730968       0.00000000
Si       2.69459408       2.66742236       0.01134915       0.00000000
Si       2.63221967      -2.74659177       0.00840246       0.00000000
Si      -2.72772794       0.01614339       2.68744388       0.00000000
Si       2.67662621      -0.02306664      -2.74725303       0.00000000
Si      -0.05699871       2.66491370       2.75982754       0.00000000
Si      -2.73510732       2.69053787      -0.06873676       0.00000000
