10
Lattice="16.290000149 0.0 0.0 0.0 16.290000149 0.0 0.0 0.0 29.1751946751" Properties=species:S:1:pos:R:3:initial_magmoms:R:1 pbc="T T T"
Si       1.77505616       1.00732474       1.15352885       0.00000000
Si       1.27420218      -1.36715455      -1.42027765       0.00000000
Si      -1.23110047       1.48670686      -1.36566169       0.00000000
Si      -1.29873655      -1.29948589       1.49172770       0.00000000
Si      -2.28796310       0.46807686       2.76140300       0.00000000
H       -3.15387435      -0.80097931      -1.59025234       0.00000000
Si      -2.50569524       0.02510289      -2.66670032       0.00000000
Si       3.43823259      -0.62838676       1.25219936       0.00000000
Si       2.76736152      -2.51151077      -0.05149422       0.00000000
Si       2.69522939       2.74794384      -0.11311223       0.00000000
