10
Lattice="16.290000149 0.0 0.0 0.0 16.290000149 0.0 0.0 0.0 29.1751946751" Properties=species:S:1:pos:R:3:initial_magmoms:R:1 pbc="T T T"
Si       1.33952671       1.32905224      -1.37668991       0.00000000
Si      -1.43944957       1.36989127       1.23460671       0.00000000
Si       1.34690608      -1.34534224       1.37949073       0.00000000
Si      -1.37907883      -1.35185824      -1.34334266       0.00000000
Si      -0.14587695      -2.69604389       2.55102067       0.00000000
Si       2.69474069       2.63564057       0.01607553       0.00000000
Si      -0.01011609      -2.74183509      -2.65298798       0.00000000
Si       2.71516835      -0.03117906      -2.69526283       0.00000000
Si      -2.81456994       0.05012433       2.59148667       0.00000000
Si      -0.01738143       2.66424581      -2.75209611       0.00000000
