10
Lattice="16.290000149 0.0 0.0 0.0 16.290000149 0.0 0.0 0.0 29.1751946751" Properties=species:S:1:pos:R:3:initial_magmoms:R:1 pbc="T T T"
Si      -1.22851036       1.85166803       0.66548619       0.00000000
Si      -1.53350803      -0.72088138      -1.61029569       0.00000000
Si       1.61893279       0.67482955      -1.56405301       0.00000000
Si       0.07167600      -1.46072431       1.93192304       0.00000000
H        0.33368436      -2.56715741      -0.88733437       0.00000000
H        0.06726141       2.40321485       1.58628451       0.00000000
H        1.55071027      -0.40004982      -2.62573835       0.00000000
Si      -2.75362905      -2.04320585      -0.11623398       0.00000000
H       -0.27041400       3.09871641      -2.01218400       0.00000000
Si       2.31660092      -1.96708268       2.21130471       0.00000000
