10
Lattice="16.290000149 0.0 0.0 0.0 16.290000149 0.0 0.0 0.0 29.1751946751" Properties=species:S:1:pos:R:3:initial_magmoms:R:1 pbc="T T T"
Si       1.35980776      -1.35761350      -1.33838288       0.00000000
Si       1.37357281       1.34698753       1.34325514       0.00000000
Si      -1.34550514      -1.35413396       1.36472808       0.00000000
Si      -1.32916627       1.36591651      -1.37651486       0.00000000
Si       0.00301365       2.70440066       2.67475267       0.00000000
Si       2.70824510       0.01659951      -2.67475267       0.00000000
Si       0.04483008      -2.70358616       2.69584634       0.00000000
Si       0.00374670      -2.72932437      -2.67580298       0.00000000
Si      -2.69063561       2.71911053      -0.02634520       0.00000000
Si      -2.70234812      -2.71779104       0.01560873       0.00000000
