10
Lattice="16.290000149 0.0 0.0 0.0 16.290000149 0.0 0.0 0.0 29.1751946751" Properties=species:S:1:pos:R:3:initial_magmoms:R:1 pbc="T T T"
Si      -1.37055916       1.35741313       1.33149753       0.00000000
Si      -1.37357281      -1.34698753      -1.34325514       0.00000000
Si       1.34933329       1.36550926      -1.35568377       0.00000000
Si       1.36902790      -1.34340373       1.36379448       0.00000000
Si      -0.00337203       2.71523351       2.66153631       0.00000000
Si      -0.01376505      -2.70460103      -2.68163802       0.00000000
Si       2.71850780      -2.69338211      -0.00881091       0.00000000
Si       2.72038115       0.01962945      -2.69342480       0.00000000
Si      -2.71907795      -2.70112149       0.02147294       0.00000000
Si      -2.70273908       0.01892898      -2.71977000       0.00000000
