10
Lattice="16.290000149 0.0 0.0 0.0 16.290000149 0.0 0.0 0.0 29.1751946751" Properties=species:S:1:pos:R:3:initial_magmoms:R:1 pbc="T T T"
Si      -1.40401980       1.17072973      -1.45750520       0.00000000
Si      -1.45992708      -1.17869554       1.41552793       0.00000000
Si       1.45993979      -1.27928629      -1.34620183       0.00000000
Si       1.21955803       1.48993228       1.39784193       0.00000000
H       -2.30625775       1.91119169      -0.47952350       0.00000000
Si       2.65179928       0.41314698      -2.53701658       0.00000000
Si      -0.07242632      -2.53887797       2.77160265       0.00000000
Si      -2.85527962      -2.50036841       0.05120247       0.00000000
Si       2.60490037       0.15038928       2.76927155       0.00000000
Si      -0.25225163       2.81053002      -2.63737925       0.00000000
