10
Lattice="16.290000149 0.0 0.0 0.0 16.290000149 0.0 0.0 0.0 29.1751946751" Properties=species:S:1:pos:R:3:initial_magmoms:R:1 pbc="T T T"
Si       1.32141223       1.32589198      -1.36480890       0.00000000
Si      -1.25810929       1.40084227       1.36401912       0.00000000
Si      -1.72525763      -0.93986785      -1.27496826       0.00000000
Si       1.44969442      -1.38437308       1.22647559       0.00000000
Si      -3.42972921       0.72847252      -1.14825689       0.00000000
Si      -2.57264714       2.66466935      -0.10811744       0.00000000
Si      -2.59058243      -2.66795342       0.10683373       0.00000000
Si       2.58427006      -0.10179621      -2.69133294       0.00000000
Si      -2.66887217      -0.00304623       2.62164507       0.00000000
Si       2.81236101       0.01055592       2.54345554       0.00000000
