10
Lattice="16.290000149 0.0 0.0 0.0 16.290000149 0.0 0.0 0.0 29.1751946751" Properties=species:S:1:pos:R:3:initial_magmoms:R:1 pbc="T T T"
Si       1.34692889       1.34799751      -1.36776230       0.00000000
Si       1.35070817      -1.36054081       1.35819284       0.00000000
Si      -1.33180706       1.34920297       1.38964370       0.00000000
Si      -1.36437874      -1.32968755      -1.37879053       0.00000000
Si       2.67785448       2.69350265       0.04635938       0.00000000
Si      -2.70662588      -2.68413590       0.00367607       0.00000000
Si      -2.69883926       2.70630659       0.04878093       0.00000000
Si       2.69140776       0.00177561       2.72254164       0.00000000
Si       2.69883600      -0.02099781      -2.72610102       0.00000000
Si      -2.68300538      -0.00615762       2.74214737       0.00000000
