10
Lattice="16.290000149 0.0 0.0 0.0 16.290000149 0.0 0.0 0.0 29.1751946751" Properties=species:S:1:pos:R:3:initial_magmoms:R:1 pbc="T T T"
Si      -0.37859589      -0.63975718      -2.22460859       0.00000000
Si      -1.99238105      -0.59821768       1.17024623       0.00000000
Si       0.76758481       2.03971979       1.00969514       0.00000000
Si       1.48757023      -1.86826754       0.35048161       0.00000000
H       -2.25305363       2.08437068      -0.27054158       0.00000000
Si       1.79256791       0.70428187       2.62626350       0.00000000
H        2.75066427       1.95133025      -0.05140669       0.00000000
Si      -2.14145084      -2.12537261      -1.88824777       0.00000000
Si      -1.06530085      -1.64379134       3.00311949       0.00000000
H       -0.45468648       3.29193210      -1.35758016       0.00000000
