10
Lattice="16.290000149 0.0 0.0 0.0 16.290000149 0.0 0.0 0.0 29.1751946751" Properties=species:S:1:pos:R:3:initial_magmoms:R:1 pbc="T T T"
Si       1.31248531       1.36088290      -1.38424629       0.00000000
Si      -1.38798946       1.47646045       1.21295872       0.00000000
Si       1.59839110      -1.30088683       1.21555531       0.00000000
Si      -1.50672727      -1.33793029      -1.30363522       0.00000000
Si      -1.69580531      -2.38423700       2.11278007       0.00000000
Si      -2.23964696      -0.00679293       2.84641952       0.00000000
Si       2.37104210      -0.10393020      -2.86532504       0.00000000
Si       3.47258820       0.15954426       1.37237198       0.00000000
Si       3.13137786       2.10870794       0.00140041       0.00000000
H        2.07599762       0.99574255       3.00098970       0.00000000
