10
Lattice="16.290000149 0.0 0.0 0.0 16.290000149 0.0 0.0 0.0 29.1751946751" Properties=species:S:1:pos:R:3:initial_magmoms:R:1 pbc="T T T"
Si      -1.41537295      -1.32339961       1.24330092       0.00000000
Si       1.35881407      -1.37010304      -1.26567830       0.00000000
Si       1.23269689       1.13772619       1.62339536       0.00000000
Si      -1.38989539       1.45065709      -1.19968401       0.00000000
Si      -0.36158913       1.06653889       3.42105415       0.00000000
Si       2.68985369       0.07433127      -2.53229020       0.00000000
Si      -2.49201164       0.09980883       2.74404376       0.00000000
Si      -0.05870916      -2.68004711      -2.57937896       0.00000000
Si       2.53184069       2.72691344       0.34689306       0.00000000
Si      -0.12510720      -2.62053974       2.66915104       0.00000000
