10
Lattice="16.290000149 0.0 0.0 0.0 16.290000149 0.0 0.0 0.0 29.1751946751" Properties=species:S:1:pos:R:3:initial_magmoms:R:1 pbc="T T T"
Si      -0.44950626      -1.28405926       0.66496104       0.00000000
H        0.52181757      -1.54033354      -1.81738123       0.00000000
Si       1.55514115      -0.43279272      -2.03097283       0.00000000
Si       2.71169044      -0.59339584      -0.00708957       0.00000000
Si      -1.26001522      -0.29898666       2.60913766       0.00000000
Si      -2.32492511      -1.99462907      -0.61028672       0.00000000
Si       1.55843173      -2.65263104       0.58402905       0.00000000
Si      -2.76073149       1.01188594       1.31565540       0.00000000
Si      -1.83953198       2.84371275       0.14511742       0.00000000
Si       0.29150955       1.20601387      -3.18508518       0.00000000
