10
Lattice="16.290000149 0.0 0.0 0.0 16.290000149 0.0 0.0 0.0 29.1751946751" Properties=species:S:1:pos:R:3:initial_magmoms:R:1 pbc="T T T"
Si      -1.25167474       1.34308282       1.48410277       0.00000000
Si       1.35806473      -1.38775684       1.39480771       0.00000000
Si      -1.44767602      -1.44205109      -1.27381817       0.00000000
Si       1.52283808       1.37888824      -1.27472261       0.00000000
H       -0.64524691       1.16583133      -2.71682330       0.00000000
Si      -0.04041549      -2.62732779      -2.73771274       0.00000000
Si      -2.58681293      -0.06420215       2.83605649       0.00000000
Si      -2.88465766       2.52547619       0.26884942       0.00000000
Si       0.13709664       2.61718889       2.86062784       0.00000000
Si       3.72798282       0.99299443      -0.47894000       0.00000000
