10
Lattice="16.290000149 0.0 0.0 0.0 16.290000149 0.0 0.0 0.0 29.1751946751" Properties=species:S:1:pos:R:3:initial_magmoms:R:1 pbc="T T T"
Si       1.36993037       1.36990756       1.32259910       0.00000000
Si       1.38055796      -1.34748601      -1.34001669       0.00000000
Si      -1.32491458       1.38522016      -1.35787191       0.00000000
Si      -1.34954506      -1.35125063       1.37444342       0.00000000
Si      -2.68196933      -2.70431921      -0.00977369       0.00000000
Si      -2.69345378       0.03694572      -2.69540871       0.00000000
Si       0.00239463       2.71639010       2.67381907       0.00000000
Si       2.69884577       0.01317861       2.69797613       0.00000000
Si       2.70467759       0.03459996      -2.70311096       0.00000000
Si      -2.69027723       2.73168641      -0.00752720       0.00000000
