10
Lattice="16.28999089631971 0.0 0.0 0.0 16.28999089631971 0.0 0.0 0.0 34.474598006748145" Properties=species:S:1:pos:R:3:initial_magmoms:R:1 pbc="T T T"
Si      -1.35746199      -1.35698418      -1.35612802       0.00000000
Si       1.35397593      -1.35585321       1.36164396       0.00000000
Si       1.35734796       1.35803540      -1.35623144       0.00000000
Si      -1.35788553       1.35800282       1.36016155       0.00000000
Si      -2.71434569      -0.00002769      -2.71370397       0.00000000
Si      -2.71357028       2.71468289       0.00037922       0.00000000
Si       0.00061902       2.71487837      -2.71373845       0.00000000
Si       0.00071676      -2.71518855      -2.71377292       0.00000000
Si       2.71593396      -2.71357584       0.00299929       0.00000000
Si       2.71555929       0.00000489      -2.71404872       0.00000000
