10
Lattice="16.28999089631971 0.0 0.0 0.0 16.28999089631971 0.0 0.0 0.0 34.474598006748145" Properties=species:S:1:pos:R:3:initial_magmoms:R:1 pbc="T T T"
Si       0.13351284      -0.61341624      -2.24712450       0.00000000
Si       2.12801157      -0.87144984       0.45082457       0.00000000
Si      -0.42129198       2.28930605      -0.54352682       0.00000000
Si      -1.53567459      -0.48617505       1.82091481       0.00000000
Si      -2.18627927      -1.09571427      -2.01931623       0.00000000
Si      -0.76848075       1.46117946       2.99243125       0.00000000
Si       1.66105872       1.11432464      -2.97191886       0.00000000
Si       1.52404353      -3.14224326       0.79953532       0.00000000
Si       1.78220745       2.83425542      -1.39663569       0.00000000
Si       3.05481483       0.79370649       1.85466546       0.00000000
