10
Lattice="16.28999089631971 0.0 0.0 0.0 16.28999089631971 0.0 0.0 0.0 34.474598006748145" Properties=species:S:1:pos:R:3:initial_magmoms:R:1 pbc="T T T"
Si       1.84875210      -1.59887979      -0.21991358       0.00000000
Si       0.99486288       1.75189176      -1.45027820       0.00000000
Si      -1.78535861      -1.13013504      -1.33065128       0.00000000
Si      -1.54055019      -1.36166481       2.55363833       0.00000000
Si      -2.15727560      -2.86386671       0.48443732       0.00000000
Si      -0.39987389      -2.33188255      -2.89531626       0.00000000
Si       2.30622417       0.40335669      -2.91841425       0.00000000
Si       2.30907492      -2.14252433       2.03224421       0.00000000
Si       0.98792334      -3.56821747      -1.44596887       0.00000000
Si       2.77366572       2.88657171      -0.14875797       0.00000000
