10
Lattice="16.28999089631971 0.0 0.0 0.0 16.28999089631971 0.0 0.0 0.0 34.474598006748145" Properties=species:S:1:pos:R:3:initial_magmoms:R:1 pbc="T T T"
Si       1.35672894      -1.35684297       1.35750700       0.00000000
Si      -1.35731538       1.35742941       1.35730016       0.00000000
Si       1.35656604       1.35759231      -1.35795517       0.00000000
Si      -1.35635427      -1.35899325      -1.35740358       0.00000000
Si       0.00146610      -2.71646827      -2.71170445       0.00000000
Si      -2.71418930      -0.00019548       2.71411767       0.00000000
Si      -0.00061902      -2.71487837       2.71373845       0.00000000
Si       2.71474479      -0.00016290       2.71435899       0.00000000
Si       2.71494027      -2.71487348      -0.00031027       0.00000000
Si      -2.71496470      -2.71490606       0.00003447       0.00000000
