10
Lattice="16.28999089631971 0.0 0.0 0.0 16.28999089631971 0.0 0.0 0.0 34.474598006748145" Properties=species:S:1:pos:R:3:initial_magmoms:R:1 pbc="T T T"
Si       1.42578225      -1.16528886       1.38953392       0.00000000
Si       1.37039625       1.33406955      -1.34726804       0.00000000
Si      -1.34099280      -1.38054492      -1.34492377       0.00000000
Si      -1.31136129       1.34853507       1.46813605       0.00000000
Si      -0.45747207      -2.00223648       2.69850067       0.00000000
Si       2.27981808       0.72804897       2.82088556       0.00000000
Si      -2.30622417      -0.40335669       2.91841425       0.00000000
Si       0.46744155       2.48321502       2.76965628       0.00000000
Si      -2.70284332       2.68980480       0.03643967       0.00000000
Si       0.01935252       2.69182476      -2.70422345       0.00000000
