10
Lattice="16.28999089631971 0.0 0.0 0.0 16.28999089631971 0.0 0.0 0.0 34.474598006748145" Properties=species:S:1:pos:R:3:initial_magmoms:R:1 pbc="T T T"
Si       0.46032282      -0.54364454       2.25215780       0.00000000
Si       1.88325432       0.83694762      -1.30896674       0.00000000
Si      -1.84875210       1.59887979       0.21991358       0.00000000
Si      -0.86082876      -1.96933768      -1.22605529       0.00000000
Si       0.45747207       2.00223648      -2.69850067       0.00000000
Si       1.08672219      -2.83865372       1.76144609       0.00000000
Si      -2.24862599      -0.73300276      -2.67540267       0.00000000
Si      -0.85388922       3.35077155      -1.23036462       0.00000000
Si      -3.63411071       0.46874475      -1.11073769       0.00000000
Si       2.73729015       2.73028545       0.12238489       0.00000000
