10
Lattice="16.28999089631971 0.0 0.0 0.0 16.28999089631971 0.0 0.0 0.0 34.474598006748145" Properties=species:S:1:pos:R:3:initial_magmoms:R:1 pbc="T T T"
Si      -1.50112350      -0.16638606       1.79254220       0.00000000
Si      -1.36052451       1.94132817      -0.58062150       0.00000000
Si       1.41884271       1.37160171       1.48954479       0.00000000
Si       0.41660046      -1.27446444      -2.10736440       0.00000000
Si       1.89278397      -1.27128789       2.46855497       0.00000000
Si      -0.33643737      -1.52780652       3.22909950       0.00000000
Si       1.46293974       0.43769601      -3.34521001       0.00000000
Si      -3.34516779      -1.24300845       0.89399578       0.00000000
Si       0.21879099       3.74606469       0.08970295       0.00000000
Si       2.52133362      -2.88277614       0.62578325       0.00000000
