10
Lattice="16.28999089631971 0.0 0.0 0.0 16.28999089631971 0.0 0.0 0.0 34.474598006748145" Properties=species:S:1:pos:R:3:initial_magmoms:R:1 pbc="T T T"
Si      -1.44862083      -0.15183909      -1.83477361       0.00000000
Si       2.03113494       0.34112889      -1.17554997       0.00000000
Si       0.07198551      -1.91816379       1.40546120       0.00000000
Si      -0.51618123       2.05653105       1.08619177       0.00000000
Si       3.42306657       1.33380891       0.41697050       0.00000000
Si       0.22426443      -3.76383708      -0.02654546       0.00000000
Si       2.33052885      -2.10922920       2.08495590       0.00000000
Si      -3.67784217      -0.40835772      -1.07422907       0.00000000
Si      -2.90857950       2.26404936       1.27638823       0.00000000
Si       0.19380213       2.05796457       3.35655216       0.00000000
