10
Lattice="16.28999089631971 0.0 0.0 0.0 16.28999089631971 0.0 0.0 0.0 34.474598006748145" Properties=species:S:1:pos:R:3:initial_magmoms:R:1 pbc="T T T"
Si      -1.93714164      -0.25614396       1.44252141       0.00000000
Si       0.16887843      -2.17284165      -1.14052376       0.00000000
Si      -0.96078420       1.94372280      -1.25990936       0.00000000
Si       2.24674938       0.30063195       1.14952164       0.00000000
Si      -0.63747657      -1.48457286       3.01576682       0.00000000
Si       1.49714874       1.89037305       2.73545746       0.00000000
Si       2.53990422      -2.40243291      -1.21529921       0.00000000
Si       0.56088099       2.19633183      -3.06413846       0.00000000
Si      -3.68118162      -1.50480504       0.24590745       0.00000000
Si       3.64573458       1.80024048      -0.27703802       0.00000000
