10
Lattice="16.28999089631971 0.0 0.0 0.0 16.28999089631971 0.0 0.0 0.0 34.474598006748145" Properties=species:S:1:pos:R:3:initial_magmoms:R:1 pbc="T T T"
Si      -1.87951251       1.13427433      -0.89651242       0.00000000
Si       0.24268842      -1.27999231       2.03514008       0.00000000
Si       1.97011260       0.35341481      -1.41790653       0.00000000
Si       0.62252235       3.08037547       1.37474431       0.00000000
Si       1.94678532       0.13155804       3.14949761       0.00000000
Si       2.59651197      -1.94159437      -1.90861824       0.00000000
Si       1.04938551      -3.38461144       1.31982625       0.00000000
Si      -1.57589949       3.39780241       0.52984039       0.00000000
Si      -3.67407008       0.61532380       0.75847605       0.00000000
Si      -2.49623792      -0.36792757      -2.96571343       0.00000000
