10
Lattice="16.28999089631971 0.0 0.0 0.0 16.28999089631971 0.0 0.0 0.0 34.474598006748145" Properties=species:S:1:pos:R:3:initial_magmoms:R:1 pbc="T T T"
Si      -1.35713619       1.35668007       1.35978233       0.00000000
Si       1.35785295      -1.35930276       1.35936863       0.00000000
Si      -1.35845568      -1.35713619      -1.36605671       0.00000000
Si       1.36389654       1.35237951      -1.37718167       0.00000000
Si       0.09715356      -2.58650991      -2.76593991       0.00000000
Si       2.71321353       2.71722087      -0.00017237       0.00000000
Si       0.00039096       2.71396287       2.71684116       0.00000000
Si      -2.71393029       2.71717200      -0.00162031       0.00000000
Si      -2.71471221      -0.00048870       2.71691011       0.00000000
Si       2.71500543      -0.00071676       2.71691011       0.00000000
