10
Lattice="16.28999089631971 0.0 0.0 0.0 16.28999089631971 0.0 0.0 0.0 34.474598006748145" Properties=species:S:1:pos:R:3:initial_magmoms:R:1 pbc="T T T"
Si      -1.35695700       1.35700587       1.35747253       0.00000000
Si      -1.35710361      -1.35715248      -1.35747253       0.00000000
Si       1.35757602       1.35716877      -1.35712778       0.00000000
Si       1.35760860      -1.35780408       1.35802412       0.00000000
Si      -2.71421211       0.00158013       2.71415214       0.00000000
Si      -2.71481484       2.71450044       0.00010342       0.00000000
Si       2.71510317       2.71445157      -0.00006895       0.00000000
Si       0.00211770      -2.71507059       2.71460031       0.00000000
Si      -2.71510806      -2.71524978      -0.00041370       0.00000000
Si       0.00079821       2.71717200       2.71404872       0.00000000
