10
Lattice="16.28999089631971 0.0 0.0 0.0 16.28999089631971 0.0 0.0 0.0 34.474598006748145" Properties=species:S:1:pos:R:3:initial_magmoms:R:1 pbc="T T T"
Si      -1.57931550      -1.80473652      -0.67032446       0.00000000
Si      -0.34505478       0.80099559      -2.35347870       0.00000000
Si       1.06086996       0.67139235       2.46769310       0.00000000
Si      -1.62399897       2.38153284      -0.79988007       0.00000000
Si       1.20005172      -2.37446298       1.39984183       0.00000000
Si      -3.01504442      -0.75673566       0.86800191       0.00000000
Si       1.55789415      -1.04834295      -2.66361235       0.00000000
Si       0.74604942       2.85156450       1.47385884       0.00000000
Si      -2.81977294       1.61629380       1.24911881       0.00000000
Si      -0.21879099      -3.74606469      -0.08970295       0.00000000
