10
Lattice="16.28999089631971 0.0 0.0 0.0 16.28999089631971 0.0 0.0 0.0 34.474598006748145" Properties=species:S:1:pos:R:3:initial_magmoms:R:1 pbc="T T T"
Si       2.26282761      -0.69657669       0.21332893       0.00000000
Si      -1.44829503      -1.80921627      -0.61361371       0.00000000
Si      -0.36105156       0.95379579       2.20834056       0.00000000
Si      -0.54773496       1.64317230      -1.72328269       0.00000000
Si       3.24871470       1.19509956      -0.76806000       0.00000000
Si      -2.57409693       0.21848148       2.52550704       0.00000000
Si       2.06408961       2.98546830       0.30772043       0.00000000
Si       2.54350431      -0.78812649       2.56329122       0.00000000
Si       0.24291648       3.22458921       1.85962980       0.00000000
Si      -3.60636165      -0.84841578      -0.77929872       0.00000000
