10
Lattice="16.28999089631971 0.0 0.0 0.0 16.28999089631971 0.0 0.0 0.0 34.474598006748145" Properties=species:S:1:pos:R:3:initial_magmoms:R:1 pbc="T T T"
Si       2.15178682       0.75142512      -0.53639057       0.00000000
Si      -1.15349394       2.06277012       0.04902291       0.00000000
Si       0.09437449      -0.61080984       2.29776772       0.00000000
Si      -1.62404688      -1.33633875      -1.11818421       0.00000000
Si      -3.35272539      -0.64531206       0.42200379       0.00000000
Si      -1.02573147       1.27516491       3.16301166       0.00000000
Si       3.24932557      -1.28409346      -0.94639719       0.00000000
Si      -2.92666044       1.49213142       1.72211056       0.00000000
Si       1.92506260       1.66472397      -2.72115049       0.00000000
Si       1.54522867      -2.69564381      -2.06075472       0.00000000
