10
Lattice="16.28999089631971 0.0 0.0 0.0 16.28999089631971 0.0 0.0 0.0 34.474598006748145" Properties=species:S:1:pos:R:3:initial_magmoms:R:1 pbc="T T T"
Si       1.35767376      -1.35777150       1.36395376       0.00000000
Si      -1.35716877       1.36106503       1.36295399       0.00000000
Si      -1.36456443      -1.36353816      -1.35883772       0.00000000
Si       1.35193968       1.37982492      -1.37900193       0.00000000
Si       2.71314837      -2.71101438       0.00368878       0.00000000
Si      -2.71399545      -2.71106325       0.00224085       0.00000000
Si      -2.71303434       2.71423395       0.00906682       0.00000000
Si       2.71148679       2.71757178       0.00393011       0.00000000
Si       0.00032580      -2.71427238       2.72070232       0.00000000
Si      -2.71440270       0.00063531       2.72073680       0.00000000
