10
Lattice="16.28999089631971 0.0 0.0 0.0 16.28999089631971 0.0 0.0 0.0 34.474598006748145" Properties=species:S:1:pos:R:3:initial_magmoms:R:1 pbc="T T T"
Si       1.35772263       1.35680848      -1.36005813       0.00000000
Si      -1.35780408      -1.35927018      -1.35933416       0.00000000
Si      -1.36195803       1.35772263       1.35864467       0.00000000
Si       1.36120869      -1.36311462       1.35678304       0.00000000
Si      -2.71479366      -2.71379997      -0.00268902       0.00000000
Si       2.71596654       2.71318651      -0.00437828       0.00000000
Si      -2.71593396       2.71357584      -0.00299929       0.00000000
Si       2.71510317      -2.71520091      -0.00213743       0.00000000
Si      -0.00037467       2.71358073      -2.71704801       0.00000000
Si       2.71433754      -0.00138465      -2.71687564       0.00000000
