10
Lattice="16.28999089631971 0.0 0.0 0.0 16.28999089631971 0.0 0.0 0.0 34.474598006748145" Properties=species:S:1:pos:R:3:initial_magmoms:R:1 pbc="T T T"
Si      -1.40194998      -1.00030374      -1.53732661       0.00000000
Si       2.13908877      -0.49536261      -0.87193202       0.00000000
Si      -0.01633887      -1.09574685       2.10081423       0.00000000
Si      -0.44577585       2.34562709       0.26086943       0.00000000
Si      -1.08712944      -3.18047589      -0.54349234       0.00000000
Si      -2.43810801       2.16664072       1.54015353       0.00000000
Si      -3.33550782      -1.34952876      -0.28951784       0.00000000
Si       0.78108921       0.59557869       3.49100317       0.00000000
Si       1.64786382      -2.70122409       2.04593064       0.00000000
Si       3.17873286       1.65916649      -1.33216816       0.00000000
