10
Lattice="16.28999089631971 0.0 0.0 0.0 16.28999089631971 0.0 0.0 0.0 34.474598006748145" Properties=species:S:1:pos:R:3:initial_magmoms:R:1 pbc="T T T"
Si      -0.38643138       1.09379205      -1.98063571       0.00000000
Si       1.40194998       1.00030374       1.53732661       0.00000000
Si      -1.93355784      -0.34922502       1.24780877       0.00000000
Si       0.31482054      -2.18017215       0.99383427       0.00000000
Si      -0.74604942      -2.85156450      -1.47385884       0.00000000
Si      -2.37004839      -0.47003166      -2.27373891       0.00000000
Si       3.54103875       0.50494113       0.66539459       0.00000000
Si      -3.56582236      -1.23527070      -0.22474003       0.00000000
Si      -2.74025493       1.75539411       1.96312261       0.00000000
Si      -1.01283075       3.38880123      -1.48992401       0.00000000
