10
Lattice="16.28999089631971 0.0 0.0 0.0 16.28999089631971 0.0 0.0 0.0 34.474598006748145" Properties=species:S:1:pos:R:3:initial_magmoms:R:1 pbc="T T T"
Si      -0.40692420       1.75965395      -1.51767608       0.00000000
Si      -1.01760861       0.23086514       2.12322273       0.00000000
Si       2.30262408      -0.25250477       0.56365999       0.00000000
Si      -0.76719384      -1.94735451      -1.17151644       0.00000000
Si       0.84577680       1.77156193       2.59207752       0.00000000
Si       0.76848075      -1.46117946      -2.99243125       0.00000000
Si       0.34718877       0.82812658      -3.53595807       0.00000000
Si      -3.05039114      -1.59940011      -1.79443830       0.00000000
Si       2.55932190      -2.23985775       1.97960147       0.00000000
Si      -3.44460914      -0.48930110       1.99183996       0.00000000
