10
Lattice="16.28999089631971 0.0 0.0 0.0 16.28999089631971 0.0 0.0 0.0 34.474598006748145" Properties=species:S:1:pos:R:3:initial_magmoms:R:1 pbc="T T T"
Si      -0.75411297       0.93152736       2.01828199       0.00000000
Si       0.42129198      -2.28930605       0.54352682       0.00000000
Si      -2.06282062       0.18549423      -1.20471550       0.00000000
Si       2.20349943       0.54494937      -0.85310888       0.00000000
Si       2.08235070      -1.17498141      -2.42839204       0.00000000
Si       0.64830942       2.83514418       1.78051056       0.00000000
Si       0.55480482      -2.90272229      -1.70359769       0.00000000
Si      -0.34718877      -0.82812658       3.53595807       0.00000000
Si      -3.28612373      -1.76465465      -0.56100545       0.00000000
Si      -1.11438261      -2.77548110       2.36444163       0.00000000
