10
Lattice="16.28999089631971 0.0 0.0 0.0 16.28999089631971 0.0 0.0 0.0 34.474598006748145" Properties=species:S:1:pos:R:3:initial_magmoms:R:1 pbc="T T T"
Si       0.39306141       2.11026361      -1.13218091       0.00000000
Si       0.49710564      -0.10200146       2.37636984       0.00000000
Si       1.49314140      -1.37787240      -1.33889071       0.00000000
Si      -2.32108065      -0.73321194       0.24194286       0.00000000
Si       2.94360300      -2.21832237       0.38228903       0.00000000
Si      -1.90329102       2.47998145      -2.07316558       0.00000000
Si      -2.26193166      -2.07423732       2.18241565       0.00000000
Si       2.53452852       1.84665883      -2.08650726       0.00000000
Si      -0.55809540       1.75188361       3.37661639       0.00000000
Si       2.05128567      -0.09969154      -3.30532288       0.00000000
