10
Lattice="16.28999089631971 0.0 0.0 0.0 16.28999089631971 0.0 0.0 0.0 34.474598006748145" Properties=species:S:1:pos:R:3:initial_magmoms:R:1 pbc="T T T"
Si      -0.75966786       0.28528677       2.16024847       0.00000000
Si      -0.59919507       2.28812598      -0.55617900       0.00000000
Si      -1.86338541      -1.54069680      -0.46885479       0.00000000
Si       2.40564204      -0.26928999      -0.71503804       0.00000000
Si       1.45684728      -2.02406671      -2.02841753       0.00000000
Si      -0.84577680      -1.77156193      -2.59207752       0.00000000
Si      -2.83801937       1.88245611       0.40335302       0.00000000
Si       1.14484491       3.53678706       0.64043497       0.00000000
Si       0.73130697       1.41076287       3.56541115       0.00000000
Si       2.44450998       2.30835816       2.21368037       0.00000000
