10
Lattice="16.28999089631971 0.0 0.0 0.0 16.28999089631971 0.0 0.0 0.0 34.474598006748145" Properties=species:S:1:pos:R:3:initial_magmoms:R:1 pbc="T T T"
Si       1.09990080      -1.57485204      -1.36485010       0.00000000
Si      -2.37102579       0.22959126       0.07477544       0.00000000
Si       0.71312733       1.86075783      -1.43921185       0.00000000
Si      -0.52463574      -1.85823288       2.08140502       0.00000000
Si      -0.29315484       2.70306486       2.36482085       0.00000000
Si      -2.53990422       2.40243291       1.21529921       0.00000000
Si       3.29530410      -0.54815850      -1.83225696       0.00000000
Si      -3.15450963       0.04056210      -2.14094268       0.00000000
Si       2.82178638      -0.66924207       2.47686335       0.00000000
Si      -3.21624873      -1.65978810       1.30234762       0.00000000
