10
Lattice="16.28999089631971 0.0 0.0 0.0 16.28999089631971 0.0 0.0 0.0 34.474598006748145" Properties=species:S:1:pos:R:3:initial_magmoms:R:1 pbc="T T T"
Si      -1.39952277       1.23121125       1.49378172       0.00000000
Si      -1.78098570      -1.05360462      -1.22278162       0.00000000
Si       1.73740995       0.99341307      -1.39687844       0.00000000
Si       1.31284368      -1.49788179       1.49336802       0.00000000
Si       2.73355974       2.54383241       0.12222976       0.00000000
Si      -0.03997566       2.56895811       2.87671375       0.00000000
Si      -2.94461298       2.50490420       0.02842777       0.00000000
Si       2.75654493      -2.72137482       0.03994229       0.00000000
Si       3.59453511      -0.74999160      -1.26232400       0.00000000
Si       2.67801084      -0.15060105       2.87667928       0.00000000
