10
Lattice="16.28999089631971 0.0 0.0 0.0 16.28999089631971 0.0 0.0 0.0 34.474598006748145" Properties=species:S:1:pos:R:3:initial_magmoms:R:1 pbc="T T T"
Si      -1.34760654       1.34927368      -1.35843782       0.00000000
Si       1.36590021      -1.36573731      -1.35426639       0.00000000
Si      -1.34601012      -1.35337320       1.38901680       0.00000000
Si       1.34615673       1.35999738       1.39801468       0.00000000
Si       0.51175035      -2.25298845       2.65982015       0.00000000
Si       2.29027626      -0.40004982       2.70860173       0.00000000
Si      -2.70379791       2.70637892       0.00289587       0.00000000
Si      -2.70585045      -0.00710435      -2.71411767       0.00000000
Si       0.00749340       2.70704681      -2.71332475       0.00000000
Si      -2.70236439      -2.72702745       0.00272349       0.00000000
