10
Lattice="16.28999089631971 0.0 0.0 0.0 16.28999089631971 0.0 0.0 0.0 34.474598006748145" Properties=species:S:1:pos:R:3:initial_magmoms:R:1 pbc="T T T"
Si       0.49979349       0.22775049      -2.29952592       0.00000000
Si       0.21320352       2.29894254       0.58855067       0.00000000
Si      -2.19797712      -0.62841933      -0.71662387       0.00000000
Si       1.42446276      -1.10297961       1.65247183       0.00000000
Si      -1.38396582      -1.54258155       1.60682744       0.00000000
Si       2.75647977       2.34865962       0.09273672       0.00000000
Si       3.17496987       0.48345462       1.99204681       0.00000000
Si       2.27831940       2.08068912      -2.25074434       0.00000000
Si      -1.35796698       1.12736574      -3.57032926       0.00000000
Si       2.17750059      -3.26006883       1.15679578       0.00000000
