10
Lattice="16.28999089631971 0.0 0.0 0.0 16.28999089631971 0.0 0.0 0.0 34.474598006748145" Properties=species:S:1:pos:R:3:initial_magmoms:R:1 pbc="T T T"
Si      -1.69606593      -1.81620468       0.80801608       0.00000000
Si       1.38396582       1.54258155      -1.60682744       0.00000000
Si      -0.81401130       0.91416222      -2.32345131       0.00000000
Si       2.80842858       0.43960194       0.04564439       0.00000000
Si       1.71940950      -0.04715955       2.39471034       0.00000000
Si      -1.81783368      -2.35427967      -1.51174644       0.00000000
Si      -0.86767056       2.68179012       1.88783004       0.00000000
Si       0.12921228      -3.45792717       1.12804395       0.00000000
Si       0.36152397       1.49719761       3.55460884       0.00000000
Si      -1.25970570      -1.15452117      -3.54343906       0.00000000
