10
Lattice="16.28999089631971 0.0 0.0 0.0 16.28999089631971 0.0 0.0 0.0 34.474598006748145" Properties=species:S:1:pos:R:3:initial_magmoms:R:1 pbc="T T T"
Si       1.35736425      -1.35088707       1.35867914       0.00000000
Si      -1.35720135      -1.35590658      -1.35702436       0.00000000
Si       1.35766046       1.35874075      -1.35681751       0.00000000
Si      -1.35391077       1.35947380       1.36574644       0.00000000
Si       0.00022806      -2.71373385      -2.71466926       0.00000000
Si      -2.71515204      -2.71376643       0.00210295       0.00000000
Si       2.71508592       0.00160619      -2.71439347       0.00000000
Si       2.71504520      -2.71454835       0.00003447       0.00000000
Si      -2.71516833       0.00185217      -2.71446241       0.00000000
Si       0.00001629       2.71690322      -2.71446241       0.00000000
