10
Lattice="16.28999089631971 0.0 0.0 0.0 16.28999089631971 0.0 0.0 0.0 34.474598006748145" Properties=species:S:1:pos:R:3:initial_magmoms:R:1 pbc="T T T"
Si       1.12010596      -1.88597475      -0.86524394       0.00000000
Si       0.97439679       2.14654959      -0.27662433       0.00000000
Si       0.21294288      -0.23535792       2.35916701       0.00000000
Si      -1.90092897       0.21696651      -1.44090110       0.00000000
Si      -0.12776247       0.78760521      -3.11398875       0.00000000
Si      -0.24513192       3.09588192       1.52839768       0.00000000
Si       1.02573147      -1.27516491      -3.16301166       0.00000000
Si       2.42881361      -1.13994162       2.35775355       0.00000000
Si      -3.69737388      -0.43725618       0.25911122       0.00000000
Si       3.18292658      -2.07146898       0.33947156       0.00000000
