10
Lattice="16.28999089631971 0.0 0.0 0.0 16.28999089631971 0.0 0.0 0.0 34.474598006748145" Properties=species:S:1:pos:R:3:initial_magmoms:R:1 pbc="T T T"
Si      -0.21999645       2.31619365       0.23135916       0.00000000
Si       2.03009238      -0.77849910       0.92664324       0.00000000
Si      -0.00609246      -0.15156216      -2.35875331       0.00000000
Si      -2.19540330      -1.02669354       0.46740686       0.00000000
Si      -0.08273691      -2.54844181      -2.08992025       0.00000000
Si       1.63496214       0.11368791       3.01973515       0.00000000
Si      -2.58217677       2.40891633       0.39304511       0.00000000
Si      -0.00387702      -3.58246601       0.10745738       0.00000000
Si      -2.28030678       0.36831690      -2.78472168       0.00000000
Si       1.07386938       3.18932136      -1.53760240       0.00000000
