10
Lattice="16.28999089631971 0.0 0.0 0.0 16.28999089631971 0.0 0.0 0.0 34.474598006748145" Properties=species:S:1:pos:R:3:initial_magmoms:R:1 pbc="T T T"
Si      -0.37268262      -1.95807496       1.19144277       0.00000000
Si       0.07161084       2.04267478       1.20216438       0.00000000
Si      -0.99588915       0.01584202      -2.16376488       0.00000000
Si       2.42700053       0.72016624       0.13138277       0.00000000
Si       1.38747047      -1.10102548       2.77269912       0.00000000
Si      -1.05231771       2.32470355      -2.32276181       0.00000000
Si      -1.44744795       3.21689056      -0.22966990       0.00000000
Si      -0.92080854      -3.82484380      -0.11452468       0.00000000
Si       0.39421800      -1.11009901      -3.78627827       0.00000000
Si       3.44460914       0.48930110      -1.99183996       0.00000000
