10
Lattice="16.28999089631971 0.0 0.0 0.0 16.28999089631971 0.0 0.0 0.0 34.474598006748145" Properties=species:S:1:pos:R:3:initial_magmoms:R:1 pbc="T T T"
Si      -1.35710361      -1.35663120      -1.35754148       0.00000000
Si      -1.35490446       1.36018242       1.35685199       0.00000000
Si       1.35883035       1.35892809      -1.35733463       0.00000000
Si       1.36254447      -1.35617508       1.36516037       0.00000000
Si      -2.71220355      -2.71440433      -0.00265455       0.00000000
Si      -2.71334385       0.00131949      -2.71477269       0.00000000
Si      -2.71324611       2.71538010      -0.00103424       0.00000000
Si       0.00128691      -2.71379671      -2.71504848       0.00000000
Si       0.00158013       2.71555929      -2.71535875       0.00000000
Si       2.71647153       0.00125433      -2.71504848       0.00000000
