10
Lattice="16.28999089631971 0.0 0.0 0.0 16.28999089631971 0.0 0.0 0.0 34.474598006748145" Properties=species:S:1:pos:R:3:initial_magmoms:R:1 pbc="T T T"
Si      -1.20036123       1.32919884      -1.47523782       0.00000000
Si      -1.74827538      -0.77525739       1.47503097       0.00000000
Si       0.76787802       2.00235051       1.29796934       0.00000000
Si       1.51827687      -1.40480073      -1.41811338       0.00000000
Si      -2.48342679       2.79461466      -0.08136010       0.00000000
Si      -3.41752797       1.01628423       1.28004254       0.00000000
Si      -2.54353689      -0.04126257      -2.82778048       0.00000000
Si       0.08674425       1.53844389       3.52578806       0.00000000
Si      -2.75359644      -2.67411753       0.31944180       0.00000000
Si       2.78226684       2.66750379      -0.03892184       0.00000000
