10
Lattice="16.28999089631971 0.0 0.0 0.0 16.28999089631971 0.0 0.0 0.0 34.474598006748145" Properties=species:S:1:pos:R:3:initial_magmoms:R:1 pbc="T T T"
Si      -0.30307545      -1.72669113      -1.59486474       0.00000000
Si       1.78867458       0.02344131       1.61034385       0.00000000
Si       0.69357933       1.98363330      -1.25839248       0.00000000
Si      -2.27255274       0.70794711       0.94429424       0.00000000
Si      -0.99634527       2.47435326       1.97674008       0.00000000
Si      -3.10596543       0.65590056      -1.24753298       0.00000000
Si      -2.66525577      -1.63396845      -1.43317879       0.00000000
Si      -0.92492991       3.43477908      -0.33688596       0.00000000
Si       2.83781574      -1.98922077       0.90475186       0.00000000
Si       0.99079038      -0.85356342      -3.36382631       0.00000000
