10
Lattice="16.28999089631971 0.0 0.0 0.0 16.28999089631971 0.0 0.0 0.0 34.474598006748145" Properties=species:S:1:pos:R:3:initial_magmoms:R:1 pbc="T T T"
Si       1.35555606       1.35785295       1.35643829       0.00000000
Si       1.35658233      -1.35734796      -1.35657619       0.00000000
Si      -1.35853713       1.35755973      -1.35681751       0.00000000
Si      -1.35627282      -1.35850455       1.35926521       0.00000000
Si       0.00490329       2.70969489       2.71156655       0.00000000
Si       2.71413157       0.00048870      -2.71342818       0.00000000
Si      -0.00013032      -2.71345788      -2.71453136       0.00000000
Si      -0.00144981       2.71446786      -2.71363502       0.00000000
Si       2.71366516       2.71445157       0.00024132       0.00000000
Si       2.71205303       0.00024435       2.71615167       0.00000000
