10
Lattice="16.28999089631971 0.0 0.0 0.0 16.28999089631971 0.0 0.0 0.0 34.474598006748145" Properties=species:S:1:pos:R:3:initial_magmoms:R:1 pbc="T T T"
Si       0.24883464       2.01616443      -1.12738893       0.00000000
Si       2.19842184      -0.31742694       0.84490392       0.00000000
Si      -1.80066632       0.52036776       1.51946876       0.00000000
Si      -0.30361302      -2.26352808      -1.42635282       0.00000000
Si      -2.09817059      -2.78247861       0.22863566       0.00000000
Si      -3.47076599      -0.89013447       0.69356035       0.00000000
Si      -0.88013471       0.08061921       3.61507732       0.00000000
Si       2.09287893       3.09278682      -0.22884251       0.00000000
Si       1.57589949      -3.39780241      -0.52984039       0.00000000
Si      -1.56675821       3.42054162      -0.72831076       0.00000000
