10
Lattice="16.28999089631971 0.0 0.0 0.0 16.28999089631971 0.0 0.0 0.0 34.474598006748145" Properties=species:S:1:pos:R:3:initial_magmoms:R:1 pbc="T T T"
Si       2.11918239       0.49492278      -0.89327181       0.00000000
Si      -0.30602394      -2.28775131      -0.51898089       0.00000000
Si       0.28665513      -0.11184714       2.35196181       0.00000000
Si      -1.73478726       1.26563526      -1.07371195       0.00000000
Si      -2.75274936      -0.62227800       1.14517784       0.00000000
Si      -2.06327511      -2.89362528       0.91075044       0.00000000
Si      -0.88119126      -2.20835385      -2.82533278       0.00000000
Si       3.66255468      -0.71539164       0.40886896       0.00000000
Si       1.30838022       1.97467380       2.93365203       0.00000000
Si      -1.87675461      -0.02901249       3.28646526       0.00000000
