10
Lattice="16.28999089631971 0.0 0.0 0.0 16.28999089631971 0.0 0.0 0.0 34.474598006748145" Properties=species:S:1:pos:R:3:initial_magmoms:R:1 pbc="T T T"
Si       1.12901007      -0.96045840      -1.82177668       0.00000000
Si       0.45222669       2.30376438       0.29399954       0.00000000
Si      -2.28273399      -0.51548076      -0.36250060       0.00000000
Si       0.47320821      -0.73342467       2.20789239       0.00000000
Si      -0.89779077       2.81994561       2.20454835       0.00000000
Si      -1.18763874      -2.47567275       2.50623573       0.00000000
Si      -0.98192862       0.82776006       3.51282560       0.00000000
Si      -2.38438359      -1.07712738      -2.67419606       0.00000000
Si      -0.65712231       3.39571566      -1.48147773       0.00000000
Si       0.38675718      -3.16042290      -2.01979888       0.00000000
