10
Lattice="16.28999089631971 0.0 0.0 0.0 16.28999089631971 0.0 0.0 0.0 34.474598006748145" Properties=species:S:1:pos:R:3:initial_magmoms:R:1 pbc="T T T"
Si      -1.45178109      -1.33043688      -1.32595036       0.00000000
Si      -1.44370125       1.22349303       1.45342573       0.00000000
Si       1.27772244      -1.49973885       1.44937841       0.00000000
Si       0.83799018       1.97138322      -1.30226630       0.00000000
Si      -1.75071888       0.12105099      -3.34499079       0.00000000
Si       2.72982933       2.62791909       0.17709266       0.00000000
Si       2.14062003      -1.38727269      -2.81366799       0.00000000
Si      -0.07853409       2.57077377       2.83673699       0.00000000
Si      -2.75654493       2.72137482      -0.03994229       0.00000000
Si       2.63998998      -0.14328684       2.83732306       0.00000000
