10
Lattice="16.28999089631971 0.0 0.0 0.0 16.28999089631971 0.0 0.0 0.0 34.474598006748145" Properties=species:S:1:pos:R:3:initial_magmoms:R:1 pbc="T T T"
Si      -1.26654750       1.43811378      -1.30170984       0.00000000
Si      -1.35638685      -1.33309215       1.35852056       0.00000000
Si       1.35742356       1.38487806       1.35524547       0.00000000
Si       1.23513453      -1.38497580      -1.51421827       0.00000000
Si       0.53666006       2.13892587      -2.71352395       0.00000000
Si       2.22388541       0.38375982      -2.88245864       0.00000000
Si      -0.00115079      -2.68830612       2.71806156       0.00000000
Si       2.71074464      -2.69654886      -0.03325422       0.00000000
Si      -2.71865439      -2.68954416      -0.02942409       0.00000000
Si       2.71473569       0.02581965       2.71737207       0.00000000
