10
Lattice="16.28999089631971 0.0 0.0 0.0 16.28999089631971 0.0 0.0 0.0 34.474598006748145" Properties=species:S:1:pos:R:3:initial_magmoms:R:1 pbc="T T T"
Si      -1.35708732      -1.35690813       1.35681751       0.00000000
Si       1.35801585       1.35773892       1.35671409       0.00000000
Si      -1.35817875       1.35529542      -1.35992023       0.00000000
Si       1.36034532      -1.35876519      -1.35933416       0.00000000
Si       0.00144981      -2.71446786       2.71363502       0.00000000
Si      -2.71469592       0.00068418       2.71377292       0.00000000
Si       2.71511497      -0.00001629       2.71387635       0.00000000
Si       2.71558138      -2.71397916       0.00020685       0.00000000
Si       2.71368355       2.71588655      -0.00055159       0.00000000
Si       0.00058644       2.71556619       2.71435899       0.00000000
