10
Lattice="16.28999089631971 0.0 0.0 0.0 16.28999089631971 0.0 0.0 0.0 34.474598006748145" Properties=species:S:1:pos:R:3:initial_magmoms:R:1 pbc="T T T"
Si       1.35708732       1.35690813      -1.35681751       0.00000000
Si      -1.35760860       1.35759231       1.35695541       0.00000000
Si       1.35853713      -1.35755973       1.35681751       0.00000000
Si      -1.35902583      -1.35826020      -1.35730016       0.00000000
Si       2.71409319       0.00029322       2.71325580       0.00000000
Si      -0.00109143       2.71220355      -2.71673774       0.00000000
Si      -2.71464705       0.00123804       2.71473821       0.00000000
Si       2.71510317       2.71464705      -0.00010342       0.00000000
Si       2.71511946      -2.71490769       0.00024132       0.00000000
Si      -2.71562445      -2.71476108       0.00013790       0.00000000
