10
Lattice="16.28999089631971 0.0 0.0 0.0 16.28999089631971 0.0 0.0 0.0 34.474598006748145" Properties=species:S:1:pos:R:3:initial_magmoms:R:1 pbc="T T T"
Si      -1.35065277       1.35184194       1.35512826       0.00000000
Si      -1.35555606      -1.35785295      -1.35643829       0.00000000
Si       1.35810910       1.35659862      -1.35619697       0.00000000
Si       1.35649697      -1.35760860       1.35971338       0.00000000
Si      -0.00384444      -2.70578529       2.71415214       0.00000000
Si      -2.71409319      -0.00029322      -2.71325580       0.00000000
Si       0.00100998       2.71435383      -2.71335923       0.00000000
Si      -2.71182888      -2.71635750       0.00282692       0.00000000
Si       0.00102627      -2.71520091      -2.71301448       0.00000000
Si      -2.71437012       2.71432125       0.00341299       0.00000000
