10
Lattice="16.28999089631971 0.0 0.0 0.0 16.28999089631971 0.0 0.0 0.0 34.474598006748145" Properties=species:S:1:pos:R:3:initial_magmoms:R:1 pbc="T T T"
Si      -0.47816037      -0.26797050      -2.34348106       0.00000000
Si       2.26165473       0.95306667      -0.30120473       0.00000000
Si      -2.54327625      -0.04971708       0.49581395       0.00000000
Si      -0.32829237       0.24459258       2.56115379       0.00000000
Si       0.41849010      -1.86520500       1.89931009       0.00000000
Si      -2.75647977      -2.34865962      -0.09273672       0.00000000
Si      -2.25668628      -2.12090913      -2.39226264       0.00000000
Si      -1.33201701      -3.45163923       1.55973511       0.00000000
Si       3.84790718      -0.87386076      -0.86400286       0.00000000
Si       1.08382257       1.93631804       3.42298475       0.00000000
