10
Lattice="16.28999089631971 0.0 0.0 0.0 16.28999089631971 0.0 0.0 0.0 34.474598006748145" Properties=species:S:1:pos:R:3:initial_magmoms:R:1 pbc="T T T"
Si      -0.88751082       1.10082933       1.88742811       0.00000000
Si      -1.61388192       1.01354751      -1.52201988       0.00000000
Si       2.23882429       0.40566987      -0.95953202       0.00000000
Si      -1.38075573      -2.10064437       0.19857380       0.00000000
Si       2.07835150      -1.59716934       1.75689545       0.00000000
Si      -2.89981452      -0.92642859      -1.23326048       0.00000000
Si       2.83801937      -1.88245611      -0.40335302       0.00000000
Si       0.97463396      -3.42315291      -0.87220782       0.00000000
Si      -0.24381080       1.11120606      -3.51799679       0.00000000
Si      -2.00959860      -0.55242648       3.14190772       0.00000000
