10
Lattice="16.28999089631971 0.0 0.0 0.0 16.28999089631971 0.0 0.0 0.0 34.474598006748145" Properties=species:S:1:pos:R:3:initial_magmoms:R:1 pbc="T T T"
Si       1.53635877      -1.62435735      -1.06357642       0.00000000
Si      -0.88101207       1.17592623      -2.00090679       0.00000000
Si      -1.59639394      -1.01594214       1.62411443       0.00000000
Si       1.05984369       1.52449965       1.67007599       0.00000000
Si       0.66489264       3.17317797      -1.65636746       0.00000000
Si      -0.20768121      -2.87301843      -2.26019038       0.00000000
Si       2.18232243       3.13000947       0.27934782       0.00000000
Si       2.37902418       0.22561650       3.17381742       0.00000000
Si      -3.33401633      -2.17785897       0.58676975       0.00000000
Si      -0.34236693      -2.46879837       3.16353709       0.00000000
