10
Lattice="16.28999089631971 0.0 0.0 0.0 16.28999089631971 0.0 0.0 0.0 34.474598006748145" Properties=species:S:1:pos:R:3:initial_magmoms:R:1 pbc="T T T"
Si       0.78347732      -1.12352130       1.84846003       0.00000000
Si       1.43572892      -1.04800086      -1.53832637       0.00000000
Si      -2.33604857      -0.47988711      -0.18802456       0.00000000
Si       0.19527149       2.37302946       0.38111689       0.00000000
Si       3.01504442       0.75673566      -0.86800191       0.00000000
Si      -2.54680859       0.61357914       1.95857196       0.00000000
Si      -0.31206101      -0.86073102      -3.26398781       0.00000000
Si      -1.00343631      -0.59673528       3.26071273       0.00000000
Si       1.29512993      -3.15571509       0.83483733       0.00000000
Si      -2.36450720      -2.82796029       0.33536908       0.00000000
