10
Lattice="16.28999089631971 0.0 0.0 0.0 16.28999089631971 0.0 0.0 0.0 34.474598006748145" Properties=species:S:1:pos:R:3:initial_magmoms:R:1 pbc="T T T"
Si      -1.80320756      -0.70081209       1.41181411       0.00000000
Si       1.68722535      -1.75516605      -0.16893470       0.00000000
Si      -1.76015309      -0.85704948      -1.58125634       0.00000000
Si       0.95457119       2.04860175       1.27929713       0.00000000
Si      -1.38747047       1.10102548      -2.77269912       0.00000000
Si       1.03953006       1.82119172      -2.64131635       0.00000000
Si      -0.53666006      -2.13892587       2.71352395       0.00000000
Si       2.19783540       0.60538568       2.69374931       0.00000000
Si      -1.31585963       3.14370026      -1.57053474       0.00000000
Si       0.69847447      -3.52390167       1.19930567       0.00000000
