10
Lattice="16.28999089631971 0.0 0.0 0.0 16.28999089631971 0.0 0.0 0.0 34.474598006748145" Properties=species:S:1:pos:R:3:initial_magmoms:R:1 pbc="T T T"
Si       1.37106414      -1.26690588       1.50503423       0.00000000
Si       1.70377110       0.82578897      -1.54606734       0.00000000
Si      -1.82609271      -0.90256374      -1.37262554       0.00000000
Si      -1.31548266       1.45798799       1.49005846       0.00000000
Si       2.54247804       2.75015015       0.01951608       0.00000000
Si       2.69894349      -2.60433117       0.10242409       0.00000000
Si      -3.51331806       0.85260231      -1.20369085       0.00000000
Si      -2.55874686       2.90120406       0.07560628       0.00000000
Si       0.02163312      -2.61443097       2.86611281       0.00000000
Si      -2.81484358      -2.67129936      -0.00438517       0.00000000
