10
Lattice="16.28999089631971 0.0 0.0 0.0 16.28999089631971 0.0 0.0 0.0 34.474598006748145" Properties=species:S:1:pos:R:3:initial_magmoms:R:1 pbc="T T T"
Si       1.35731212      -1.35905841       1.36212660       0.00000000
Si      -1.36047219       1.35668153       1.36205765       0.00000000
Si      -1.35742356      -1.38487806      -1.35524547       0.00000000
Si       1.37707189       1.35943349      -1.37502011       0.00000000
Si      -2.62397106       0.05323572      -2.65695531       0.00000000
Si       2.71418767      -2.71298547       0.00103424       0.00000000
Si       2.71514878       2.71231173       0.00786021       0.00000000
Si      -2.71703583       2.71269618       0.00630885       0.00000000
Si      -2.71381041      -2.71797021       0.00327509       0.00000000
Si       2.71378042      -0.00128691       2.71953018       0.00000000
