10
Lattice="16.28999089631971 0.0 0.0 0.0 16.28999089631971 0.0 0.0 0.0 34.474598006748145" Properties=species:S:1:pos:R:3:initial_magmoms:R:1 pbc="T T T"
Si      -1.35716527      -1.35703845      -1.35685199       0.00000000
Si      -1.35763168       1.35692442       1.35681751       0.00000000
Si       1.35785784      -1.35749457       1.35736911       0.00000000
Si       1.35872121       1.35708732      -1.35754148       0.00000000
Si       0.00060273      -2.71292031       2.71404872       0.00000000
Si       0.00008634       2.71386513       2.71435899       0.00000000
Si      -2.71574078       0.00032580       2.71301448       0.00000000
Si      -2.71240133      -0.00182448      -2.71639299       0.00000000
Si       2.71481484      -2.71450044      -0.00010342       0.00000000
Si      -2.71473080       2.71467963      -0.00034475       0.00000000
