10
Lattice="16.28999089631971 0.0 0.0 0.0 16.28999089631971 0.0 0.0 0.0 34.474598006748145" Properties=species:S:1:pos:R:3:initial_magmoms:R:1 pbc="T T T"
Si      -1.34907657      -1.35582946      -1.36881468       0.00000000
Si       1.38779723      -1.23633493       1.44934738       0.00000000
Si       1.36510526       1.35469432      -1.36802176       0.00000000
Si      -1.38548472       1.20174751       1.56466498       0.00000000
Si       2.24862599       0.73300276       2.67540267       0.00000000
Si      -0.17114926      -2.35891159       2.81695545       0.00000000
Si       0.39987389       2.33188255       2.89531626       0.00000000
Si      -2.71598676       2.70735076       0.03961134       0.00000000
Si       2.72276273      -2.70427588       0.00458512       0.00000000
Si      -2.70644082      -0.00494239      -2.72749382       0.00000000
