10
Lattice="16.28999089631971 0.0 0.0 0.0 16.28999089631971 0.0 0.0 0.0 34.474598006748145" Properties=species:S:1:pos:R:3:initial_magmoms:R:1 pbc="T T T"
Si       1.55894648       1.12257666      -1.36760807       0.00000000
Si      -1.02799853      -1.61759700      -1.42876604       0.00000000
Si       1.52288042      -1.31056308       1.32679012       0.00000000
Si      -1.58625245       1.82692743       0.56279813       0.00000000
Si       0.17114926       2.35891159      -2.81695545       0.00000000
Si      -2.54237771      -0.36760014      -2.80754388       0.00000000
Si       3.50649743       0.25326063       1.61989332       0.00000000
Si       2.41977524       3.09191435      -0.14155278       0.00000000
Si      -1.82900603      -3.49922232      -0.11166329       0.00000000
Si      -1.21433546       3.56065910      -1.25229047       0.00000000
