10
Lattice="16.28999089631971 0.0 0.0 0.0 16.28999089631971 0.0 0.0 0.0 34.474598006748145" Properties=species:S:1:pos:R:3:initial_magmoms:R:1 pbc="T T T"
Si       1.93355784       0.34922502      -1.24780877       0.00000000
Si      -0.80669709       2.10461913       0.71531383       0.00000000
Si      -1.63226452      -0.88604568      -1.47254880       0.00000000
Si       0.27329733      -1.48695120       1.84821871       0.00000000
Si       2.24837838      -1.83094713      -0.25397451       0.00000000
Si      -0.43649055      -0.12080664      -3.52154768       0.00000000
Si      -3.05233386       1.29782430       1.30355423       0.00000000
Si       3.33550782       1.34952876       0.28951784       0.00000000
Si      -3.70352240      -0.38208195      -0.36712020       0.00000000
Si      -1.04938551       3.38461144      -1.31982625       0.00000000
