10
Lattice="16.290000149 0.0 0.0 0.0 16.290000149 0.0 0.0 0.0 29.1751946751" Properties=species:S:1:pos:R:3:initial_magmoms:R:1 pbc="T T T"
H        0.44611794       1.28493892      -0.66723670       0.00000000
Si      -0.81642223       0.98038108       1.94566456       0.00000000
Si      -1.88781554      -0.70770277      -1.26357768       0.00000000
Si       2.01451916      -1.36917451      -0.08291590       0.00000000
H        0.97867063      -0.25831053      -2.48628092       0.00000000
H       -0.66142288      -2.66400146      -1.01763079       0.00000000
Si       3.17616070       0.69416578      -0.68445007       0.00000000
Si      -2.32499027       2.28841922       0.65533322       0.00000000
Si       0.77172247      -2.97095394      -1.47317228       0.00000000
Si       1.97672636       0.88014871      -2.68330100       0.00000000
