10
Lattice="16.290000149 0.0 0.0 0.0 16.290000149 0.0 0.0 0.0 29.1751946751" Properties=species:S:1:pos:R:3:initial_magmoms:R:1 pbc="T T T"
Si      -0.43831503       0.24992118      -2.28283120       0.00000000
Si       0.81000397       1.85870531       1.18138182       0.00000000
Si      -1.87462064      -0.80223364       1.19461277       0.00000000
Si       1.63305622      -1.73534114       0.08265858       0.00000000
Si       2.18580851       0.59474791       2.59771207       0.00000000
Si      -0.67111543      -2.19892196       2.63612121       0.00000000
Si      -2.15752907       1.87975199      -2.18077636       0.00000000
Si      -0.48900951      -2.04361310      -2.94957192       0.00000000
Si       1.71442478      -2.42918111      -2.14684561       0.00000000
Si       0.64464418      -3.52204627       1.23604447       0.00000000
