10
Lattice="16.290000149 0.0 0.0 0.0 16.290000149 0.0 0.0 0.0 29.1751946751" Properties=species:S:1:pos:R:3:initial_magmoms:R:1 pbc="T T T"
Si      -1.35553978      -1.31460301       1.39911105       0.00000000
Si       1.34418565       1.36893016       1.36340061       0.00000000
Si      -1.37425699       1.35136954      -1.36101991       0.00000000
Si       1.42687369      -1.37701000      -1.29202933       0.00000000
Si      -2.67613751      -2.65546550       0.00494228       0.00000000
Si      -2.54785376      -0.11588706      -2.81159892       0.00000000
Si       2.68421735      -0.00892692      -2.71817995       0.00000000
Si       2.71156826       2.71865441       0.01279041       0.00000000
Si      -0.00289962      -2.68174127       2.75534915       0.00000000
Si       2.80267824      -2.64096740       0.12430092       0.00000000
