10
Lattice="16.290000149 0.0 0.0 0.0 16.290000149 0.0 0.0 0.0 29.1751946751" Properties=species:S:1:pos:R:3:initial_magmoms:R:1 pbc="T T T"
Si       1.12679560      -0.03784167      -1.01054122       0.00000000
H        0.66171610       0.94837123       1.63112678       0.00000000
H       -0.87395851       1.82622305       0.45802138       0.00000000
Si      -2.23658444       1.23717664       0.18596269       0.00000000
Si      -2.71635752      -0.97844257       0.76955411       0.00000000
Si       0.13543506       0.68709592       3.01826141       0.00000000
Si       1.36985869      -2.17184798      -1.91876503       0.00000000
Si       3.18554211       0.65855584      -0.10453472       0.00000000
Si       0.89702515       1.47991393      -2.84522334       0.00000000
Si      -1.66244339      -0.90360631       2.88536840       0.00000000
