10
Lattice="16.290000149 0.0 0.0 0.0 16.290000149 0.0 0.0 0.0 29.1751946751" Properties=species:S:1:pos:R:3:initial_magmoms:R:1 pbc="T T T"
H       -0.99805573      -1.13845924       0.19702009       0.00000000
Si       1.46352456      -1.17786475      -1.37391827       0.00000000
Si       1.19943434      -0.18598293       1.99885094       0.00000000
Si      -1.25222860       1.61976358      -1.17523519       0.00000000
H       -1.53060841       0.40479021       2.01606430       0.00000000
Si       0.03779280      -2.24932322       2.60038510       0.00000000
Si      -1.97672636      -0.88014871       2.68330100       0.00000000
Si      -2.55640601      -0.06219522      -2.32701353       0.00000000
H        1.75641714      -0.93467134      -2.97578233       0.00000000
Si       0.02349018      -2.61151508      -2.56420786       0.00000000
