10
Lattice="16.290000149 0.0 0.0 0.0 16.290000149 0.0 0.0 0.0 29.1751946751" Properties=species:S:1:pos:R:3:initial_magmoms:R:1 pbc="T T T"
Si      -2.30754368      -0.08472755       0.36609034       0.00000000
H       -0.90697834       1.55727514      -1.49578306       0.00000000
Si       0.97898014      -0.40557213      -2.15070783       0.00000000
Si       1.03102669       2.14146713       0.39404018       0.00000000
Si       0.06630030      -2.05939811       1.29406576       0.00000000
H       -2.92407132       1.21942054      -0.07579716       0.00000000
Si       2.84532546       1.24926382       1.54482656       0.00000000
Si       2.89852860      -1.46704972      -1.37709836       0.00000000
Si       3.54331938      -0.79296300       0.76862050       0.00000000
Si      -3.15141456      -1.74552239      -1.03198499       0.00000000
