10
Lattice="16.290000149 0.0 0.0 0.0 16.290000149 0.0 0.0 0.0 29.1751946751" Properties=species:S:1:pos:R:3:initial_magmoms:R:1 pbc="T T T"
Si       0.36103527      -0.88003468      -2.13509910       0.00000000
Si      -1.80926516       1.47559708       0.17122922       0.00000000
Si       1.62667054       1.68344120       0.05604555       0.00000000
Si       0.22977045      -1.51775560       1.83468212       0.00000000
H       -0.89702515      -1.47991393       2.84522334       0.00000000
Si       1.07183314       2.72261288       2.05930194       0.00000000
Si       2.28851696      -0.82135810       2.74068861       0.00000000
Si       1.41413491       0.87850342      -3.32034138       0.00000000
Si      -3.63931635       0.20162133       0.83219325       0.00000000
H       -1.77098366       0.34630911       3.30324472       0.00000000
