10
Lattice="16.290000149 0.0 0.0 0.0 16.290000149 0.0 0.0 0.0 29.1751946751" Properties=species:S:1:pos:R:3:initial_magmoms:R:1 pbc="T T T"
Si       1.48440997      -1.17804394      -1.38363361       0.00000000
Si       1.44003438       1.43365033       1.19028959       0.00000000
Si      -1.23007420       1.47225763      -1.36589509       0.00000000
Si      -1.63419653      -1.03461049       1.42153219       0.00000000
H        1.73292696       1.67684375      -0.41157447       0.00000000
H        0.29983211      -2.60548778       1.65178282       0.00000000
H       -1.02154591       1.47305584       2.76122795       0.00000000
Si      -2.57989619       2.54931986       0.23719433       0.00000000
Si      -0.02349018       2.61151508       2.56420786       0.00000000
Si      -3.27158589       0.68339809       1.65554642       0.00000000
