10
Lattice="16.290000149 0.0 0.0 0.0 16.290000149 0.0 0.0 0.0 29.1751946751" Properties=species:S:1:pos:R:3:initial_magmoms:R:1 pbc="T T T"
Si       1.38041461      -1.34397388      -1.33838288       0.00000000
Si      -1.29741706       1.30289050      -1.46342776       0.00000000
Si       1.39297420       1.34636851       1.34112535       0.00000000
Si      -1.35303112      -1.39100311       1.34159215       0.00000000
Si      -2.78723532       0.05326830       2.45652222       0.00000000
Si      -2.66193263       2.67364514      -0.20542255       0.00000000
Si       0.01508454      -2.68236029      -2.71288465       0.00000000
Si      -2.71081892      -2.69755886      -0.05210690       0.00000000
Si       2.71937117      -0.01985751       2.69074068       0.00000000
Si       2.72399229       0.02829573      -2.70162303       0.00000000
