10
Lattice="16.290000149 0.0 0.0 0.0 16.290000149 0.0 0.0 0.0 29.1751946751" Properties=species:S:1:pos:R:3:initial_magmoms:R:1 pbc="T T T"
Si       1.41903820      -1.33069753      -1.30223481       0.00000000
Si       1.37350765       1.32669019       1.36364860       0.00000000
Si      -1.35190711      -1.37521810       1.34672699       0.00000000
Si      -1.35189082       1.31872438      -1.40764479       0.00000000
Si       0.10660176      -2.69117318      -2.64674449       0.00000000
Si       0.00438201       2.70596450       2.68616017       0.00000000
Si       2.75351502       2.64424169      -0.00014588       0.00000000
Si      -2.72204273      -0.01169622       2.68298008       0.00000000
Si      -2.71480997       2.69275331      -0.05849627       0.00000000
Si       0.01549179       2.66844863      -2.75825500       0.00000000
