10
Lattice="16.290000149 0.0 0.0 0.0 16.290000149 0.0 0.0 0.0 29.1751946751" Properties=species:S:1:pos:R:3:initial_magmoms:R:1 pbc="T T T"
Si      -0.92657521       1.04453110      -1.83351511       0.00000000
Si       1.07101864       1.75975985       1.06431110       0.00000000
Si       1.32789565      -1.54798984      -1.16134780       0.00000000
Si      -1.93886840      -1.02656323       0.90265135       0.00000000
H        0.51362370      -1.27834147       2.39397060       0.00000000
Si       0.69045166      -2.66717639       1.78651387       0.00000000
Si      -1.70132762      -1.00150921      -2.71145507       0.00000000
Si      -0.48576780      -2.87571608      -1.75897249       0.00000000
Si      -2.22026186       2.54624105      -0.50945725       0.00000000
Si      -1.21070539      -3.21853099       0.50388479       0.00000000
