10
Lattice="16.290000149 0.0 0.0 0.0 16.290000149 0.0 0.0 0.0 29.1751946751" Properties=species:S:1:pos:R:3:initial_magmoms:R:1 pbc="T T T"
Si       1.36515088       1.35560494       1.34678534       0.00000000
Si       1.37013562      -1.36352188      -1.33625309       0.00000000
Si      -1.34812783       1.36057339      -1.36572004       0.00000000
Si      -1.34928442      -1.34654770       1.37870300       0.00000000
Si      -0.01063737       2.71894763       2.67968328       0.00000000
Si       2.71505432      -0.02181231       2.68875677       0.00000000
Si       2.72204273       0.01169622      -2.68298008       0.00000000
Si      -2.69645114      -2.70870122       0.02745386       0.00000000
Si       0.02306664      -2.72025083      -2.69867633       0.00000000
Si      -2.70835913       0.00636939      -2.71941990       0.00000000
