10
Lattice="16.290000149 0.0 0.0 0.0 16.290000149 0.0 0.0 0.0 29.1751946751" Properties=species:S:1:pos:R:3:initial_magmoms:R:1 pbc="T T T"
Si       1.00048294       0.05574438      -1.14349258       0.00000000
H       -1.17195148      -1.77823271      -0.32740403       0.00000000
H        1.96652882       0.34953453       1.29403658       0.00000000
Si      -1.69823252      -2.03950802       1.05973060       0.00000000
Si       0.13519071       1.47592288      -2.74445221       0.00000000
Si       1.28267461       2.91704055       0.33869483       0.00000000
Si       1.35187453      -2.06804810      -2.06306554       0.00000000
H       -2.70762608      -0.90038089      -1.50050944       0.00000000
Si       2.89362531       1.38087073      -0.73104285       0.00000000
Si      -2.54475866      -0.16149906       2.16897150       0.00000000
