10
Lattice="16.290000149 0.0 0.0 0.0 16.290000149 0.0 0.0 0.0 29.1751946751" Properties=species:S:1:pos:R:3:initial_magmoms:R:1 pbc="T T T"
Si       1.21800331      -1.41358105       1.44795353       0.00000000
Si      -1.48680460      -1.24975252      -1.37353899       0.00000000
Si      -1.48123342       1.30166647       1.33578629       0.00000000
Si       1.61569108       1.48597218      -0.94095838       0.00000000
Si       2.55756260      -2.77193901       0.10468060       0.00000000
Si       0.88752808       3.67793994      -0.54219182       0.00000000
Si      -2.80077231      -2.61778673       0.10602266       0.00000000
H        3.02448288      -0.73871893      -2.24847390       0.00000000
Si      -0.18225252       2.58507478       2.84069826       0.00000000
H        1.05795406      -1.08825346      -3.54251049       0.00000000
