10
Lattice="16.290000149 0.0 0.0 0.0 16.290000149 0.0 0.0 0.0 29.1751946751" Properties=species:S:1:pos:R:3:initial_magmoms:R:1 pbc="T T T"
Si       1.53694522      -1.27202095      -1.19936308       0.00000000
Si       1.39401676       1.32232447       1.36588634       0.00000000
Si      -1.21743316      -1.43430193       1.44292636       0.00000000
Si      -1.47031912       1.20920671      -1.45581304       0.00000000
H        0.34963227      -1.81638389      -2.24010062       0.00000000
Si      -2.66929571       2.68037291      -0.02336933       0.00000000
Si       2.85197780       2.50186709      -0.05161092       0.00000000
Si      -2.64881918      -0.06268392       2.72833000       0.00000000
Si      -0.13755276       2.53716752      -2.85750609       0.00000000
Si       0.06405228       2.76263742       2.68029596       0.00000000
