10
Lattice="16.290000149 0.0 0.0 0.0 16.290000149 0.0 0.0 0.0 29.1751946751" Properties=species:S:1:pos:R:3:initial_magmoms:R:1 pbc="T T T"
Si       1.39025377       1.43692462      -1.17777343       0.00000000
Si       1.69810220      -1.60019929       0.01324554       0.00000000
Si      -0.95886199       1.26944713       1.75366260       0.00000000
Si      -1.59317830      -0.81371809      -1.56052281       0.00000000
Si      -2.07166448       1.21624399      -2.61637311       0.00000000
Si      -0.17725149       2.71917569      -2.30090173       0.00000000
Si       0.62708356      -3.35995914      -1.05106556       0.00000000
Si      -2.41425947       2.68369607       0.53781554       0.00000000
Si      -0.29949165      -2.31542804      -2.88458067       0.00000000
Si       2.35374212      -2.02168676       2.14442349       0.00000000
