10
Lattice="16.290000149 0.0 0.0 0.0 16.290000149 0.0 0.0 0.0 29.1751946751" Properties=species:S:1:pos:R:3:initial_magmoms:R:1 pbc="T T T"
Si      -0.83621458       1.24392233      -1.71207044       0.00000000
Si      -1.83112634      -1.02120382       0.94530257       0.00000000
Si       1.03983958       1.85354138       0.95231336       0.00000000
Si       1.74205262      -1.54337977      -0.45896141       0.00000000
H       -1.01304253       2.63275724      -1.10461372       0.00000000
Si      -0.42438708      -2.38625696       2.19704387       0.00000000
Si       1.48191760      -1.03324213      -2.76013096       0.00000000
Si       2.45711846       0.50978888       2.20531796       0.00000000
Si       1.05466348       1.25764503      -3.05631754       0.00000000
Si       0.99758332      -0.92636344       3.42153846       0.00000000
