10
Lattice="16.290000149 0.0 0.0 0.0 16.290000149 0.0 0.0 0.0 29.1751946751" Properties=species:S:1:pos:R:3:initial_magmoms:R:1 pbc="T T T"
Si      -1.32177061      -1.32649471       1.36495973       0.00000000
Si       1.26146666      -1.42780222      -1.32819665       0.00000000
Si      -1.14008824       1.50030901      -1.38508828       0.00000000
Si       1.50582318       1.38476404       1.16856107       0.00000000
Si       1.94372282       0.33777315      -2.83398680       0.00000000
H       -2.32740119       0.95594608      -2.42582583       0.00000000
Si       0.52860888       2.28662732      -2.83486206       0.00000000
Si       0.10523340       2.73455346       2.53693022       0.00000000
Si       0.12793726      -2.71104698       2.59236601       0.00000000
Si      -2.57961926       0.07436385       2.73021588       0.00000000
