10
Lattice="16.290000149 0.0 0.0 0.0 16.290000149 0.0 0.0 0.0 29.1751946751" Properties=species:S:1:pos:R:3:initial_magmoms:R:1 pbc="T T T"
Si       1.25222860      -1.61976358       1.17523519       0.00000000
Si       1.31875696       1.29354004      -1.47492279       0.00000000
Si      -0.99087184       1.75917341       1.28195805       0.00000000
Si      -1.30417741      -1.68195881      -1.15177834       0.00000000
H        0.25417287      -2.75822283       1.37225528       0.00000000
H       -3.04359105      -1.03909024       0.37487208       0.00000000
H       -2.48238425      -1.17227728      -1.96176927       0.00000000
H       -0.27837981      -1.21497337       3.19129949       0.00000000
H       -1.84239902       0.49142043      -3.05738535       0.00000000
Si      -2.51713082       2.75731059      -0.21954334       0.00000000
