10
Lattice="16.290000149 0.0 0.0 0.0 16.290000149 0.0 0.0 0.0 29.1751946751" Properties=species:S:1:pos:R:3:initial_magmoms:R:1 pbc="T T T"
Si       1.91954846      -1.06147759       0.77360946       0.00000000
Si      -1.25172361      -1.31968549      -1.47072156       0.00000000
Si       1.16190055       1.43625673      -1.50649035       0.00000000
Si      -0.97898014       0.40557213       2.15070783       0.00000000
H       -1.88595848       1.96284728       0.65492477       0.00000000
Si       0.05204655       2.54703926       2.54474801       0.00000000
Si      -2.59967225      -2.60175737      -0.09490691       0.00000000
Si       3.66485907      -0.74628074      -0.72033556       0.00000000
Si       2.60625341       2.76296322      -0.29948337       0.00000000
Si       2.68265351       0.11847717      -2.70363612       0.00000000
