10
Lattice="16.290000149 0.0 0.0 0.0 16.290000149 0.0 0.0 0.0 29.1751946751" Properties=species:S:1:pos:R:3:initial_magmoms:R:1 pbc="T T T"
Si       1.42099300       1.38932524       1.18410445       0.00000000
Si       1.43485579      -1.32279688      -1.27784435       0.00000000
Si      -1.32426298       1.44212113      -1.26915014       0.00000000
Si      -1.38051235      -1.33633387       1.33937484       0.00000000
Si       0.05188365      -2.66220956      -2.60505313       0.00000000
Si      -2.67380804       0.07855038      -2.61412662       0.00000000
Si      -2.55502136       0.12140937       2.74742808       0.00000000
Si       0.01014867      -2.61749351       2.70585343       0.00000000
Si       2.71368596       0.09524763       2.61106322       0.00000000
Si       0.06574644       2.80108182      -2.58133370       0.00000000
