10
Lattice="16.290000149 0.0 0.0 0.0 16.290000149 0.0 0.0 0.0 29.1751946751" Properties=species:S:1:pos:R:3:initial_magmoms:R:1 pbc="T T T"
Si      -1.63738936       1.71800858       0.23401424       0.00000000
Si       0.40570245      -0.20497707       2.35280440       0.00000000
Si       1.63419653       1.03461049      -1.42153219       0.00000000
Si      -1.04011651      -1.67298302      -1.40992046       0.00000000
H        1.93402864      -1.57087729       0.23025064       0.00000000
H        0.61265062       2.50766633       1.33969576       0.00000000
H       -1.02744289       0.10197540       2.80834589       0.00000000
Si      -2.36029070      -0.23374521      -2.77715761       0.00000000
Si      -3.48970899       0.87933421      -1.02416603       0.00000000
Si       0.40412232       2.50686812      -2.78742727       0.00000000
