10
Lattice="16.290000149 0.0 0.0 0.0 16.290000149 0.0 0.0 0.0 29.1751946751" Properties=species:S:1:pos:R:3:initial_magmoms:R:1 pbc="T T T"
H       -0.06509484      -1.07580790      -1.06043080       0.00000000
Si       2.19954913       0.19888461       0.64579293       0.00000000
Si      -1.62807148      -0.67258153       1.55483365       0.00000000
Si      -0.45828657       2.12954285      -0.88899736       0.00000000
H       -1.89143192       2.43649532      -0.43345587       0.00000000
H        1.07003961       0.76364263      -3.01155112       0.00000000
Si      -3.16061841      -1.39214341      -0.05875884       0.00000000
H       -1.28461312      -3.23049762       0.66256867       0.00000000
Si       2.98682040      -2.06031035       0.43532308       0.00000000
Si       3.50599899      -0.05418054      -1.27154251       0.00000000
