10
Lattice="16.290000149 0.0 0.0 0.0 16.290000149 0.0 0.0 0.0 29.1751946751" Properties=species:S:1:pos:R:3:initial_magmoms:R:1 pbc="T T T"
Si      -0.55483741       1.03917169       2.00325639       0.00000000
Si      -1.62667054      -1.68344120      -0.05604555       0.00000000
Si       2.19688571      -0.72229861      -0.45492881       0.00000000
Si       0.04647537       2.15019368      -0.97010440       0.00000000
Si       0.69126616       2.82428040       1.17561447       0.00000000
Si       1.91451485       0.16131987      -2.69742180       0.00000000
Si       1.92529883      -2.74781352       0.74898560       0.00000000
Si      -3.43593570      -0.20784411       0.11518367       0.00000000
Si      -0.21253563      -0.80493778      -3.37638693       0.00000000
Si      -1.26563527      -2.56347587      -2.19114465       0.00000000
