10
Lattice="16.290000149 0.0 0.0 0.0 16.290000149 0.0 0.0 0.0 29.1751946751" Properties=species:S:1:pos:R:3:initial_magmoms:R:1 pbc="T T T"
Si      -1.30622995      -1.31361747      -1.44676873       0.00000000
Si      -1.32424669       1.39510005       1.36341520       0.00000000
Si       1.26139987      -1.39265655       1.43040144       0.00000000
Si       1.36699165       1.35976704      -1.37633981       0.00000000
Si      -2.66061314      -2.66850565      -0.11235367       0.00000000
Si       2.65908188       0.02505076       2.68846501       0.00000000
Si       2.69294879      -2.67731854       0.02287335       0.00000000
Si      -2.67152744       2.72894155      -0.04344186       0.00000000
Si       0.07561818       2.76534970       2.67749514       0.00000000
Si      -2.68099193       0.03282435      -2.78313852       0.00000000
