10
Lattice="16.290000149 0.0 0.0 0.0 16.290000149 0.0 0.0 0.0 29.1751946751" Properties=species:S:1:pos:R:3:initial_magmoms:R:1 pbc="T T T"
Si       1.29549484       1.43365669      -1.28058682       0.00000000
Si      -1.03063573       1.61268558       1.32898847       0.00000000
Si       1.52625898      -0.99813718       1.50150139       0.00000000
Si      -1.57009537      -1.31186629      -1.21114986       0.00000000
Si       2.48313359       2.58372923       0.41317911       0.00000000
Si      -1.56338389       0.35455185       3.26044471       0.00000000
Si       2.60107319       0.02160054      -2.61815279       0.00000000
H        0.67473181      -2.26589015      -2.83784201       0.00000000
Si       3.05839866       0.84401749       1.93221479       0.00000000
Si       2.51713082      -2.75731059       0.21954334       0.00000000
