10
Lattice="16.290000149 0.0 0.0 0.0 16.290000149 0.0 0.0 0.0 29.1751946751" Properties=species:S:1:pos:R:3:initial_magmoms:R:1 pbc="T T T"
Si       1.35153407       1.35281935       1.36189809       0.00000000
Si       1.38761805      -1.36111096      -1.32370776       0.00000000
Si      -1.33786513      -1.35749458       1.38077444       0.00000000
Si      -1.34501644       1.38028429      -1.35550872       0.00000000
Si      -2.68802921       2.71119359       0.03174261       0.00000000
Si       0.05251717      -2.73841418      -2.66856753       0.00000000
Si      -2.70194087       0.03070665      -2.70970456       0.00000000
Si       2.71003700       2.70436808      -0.00122536       0.00000000
Si       2.68988627      -0.00516393       2.72642194       0.00000000
Si      -2.69697242      -2.72287352       0.04971453       0.00000000
