10
Lattice="16.290000149 0.0 0.0 0.0 16.290000149 0.0 0.0 0.0 29.1751946751" Properties=species:S:1:pos:R:3:initial_magmoms:R:1 pbc="T T T"
Si       1.37968156       1.34366437      -1.33505691       0.00000000
Si       1.36961434      -1.34785090       1.34144628       0.00000000
Si      -1.35092971       1.37684710       1.34818575       0.00000000
Si      -1.38067525      -1.34434855      -1.35638398       0.00000000
Si      -0.05484843       2.69029352      -2.59595047       0.00000000
Si      -0.00454491      -2.69048900       2.68397203       0.00000000
Si      -2.72792342       0.02166570       2.68026678       0.00000000
Si       2.72469800      -2.70107750      -0.02412789       0.00000000
Si       2.72707634       0.01446552       2.70016427       0.00000000
Si      -0.04432509      -2.78572035      -2.64525655       0.00000000
