10
Lattice="16.290000149 0.0 0.0 0.0 16.290000149 0.0 0.0 0.0 29.1751946751" Properties=species:S:1:pos:R:3:initial_magmoms:R:1 pbc="T T T"
Si      -1.36961434       1.34785090      -1.34144628       0.00000000
Si      -1.37415925      -1.34263810       1.34252576       0.00000000
Si       1.35508366      -1.35322660      -1.36557416       0.00000000
Si       1.35746200       1.36231642       1.35871799       0.00000000
Si       0.01006722       2.69151527      -2.67650318       0.00000000
Si      -0.00908982      -2.73588924       2.64613181       0.00000000
Si       2.71870328      -2.69254154      -0.00175051       0.00000000
Si      -2.72730440       0.02798622       2.69173264       0.00000000
Si       2.71023248       0.01759320      -2.71189270       0.00000000
Si      -2.72979677      -2.69583212      -0.01756347       0.00000000
