10
Lattice="16.290000149 0.0 0.0 0.0 16.290000149 0.0 0.0 0.0 29.1751946751" Properties=species:S:1:pos:R:3:initial_magmoms:R:1 pbc="T T T"
Si       1.35925390       1.36394542      -1.34240906       0.00000000
Si      -1.35347095       1.38562741       1.33596134       0.00000000
Si       1.38774511      -1.34252407       1.34742719       0.00000000
Si      -1.35746200      -1.36231642      -1.35871799       0.00000000
Si      -2.70785414       0.03073923       2.67037639       0.00000000
Si       0.05299137      -2.79054219       2.60546159       0.00000000
Si       2.69087996       2.71798164       0.04195393       0.00000000
Si      -0.00076563       2.71682342      -2.69546706       0.00000000
Si       2.70997184       0.00309510      -2.70243993       0.00000000
Si      -2.72707634      -0.01446552      -2.70016427       0.00000000
