10
Lattice="16.290000149 0.0 0.0 0.0 16.290000149 0.0 0.0 0.0 29.1751946751" Properties=species:S:1:pos:R:3:initial_magmoms:R:1 pbc="T T T"
Si       1.36738261       1.34972425      -1.35061020       0.00000000
Si      -1.34418565      -1.36893016      -1.36340061       0.00000000
Si       1.35189082      -1.31872438       1.40764479       0.00000000
Si      -1.36291915       1.37402893       1.34914853       0.00000000
Si       2.67213017       2.64520280       0.12466561       0.00000000
Si      -2.69972543      -2.68353317       0.03571044       0.00000000
Si       0.08268804      -2.74594017      -2.65542994       0.00000000
Si      -0.00516393       2.76141567      -2.65331474       0.00000000
Si       2.77092903      -2.64942191       0.10540998       0.00000000
Si      -2.71844264      -0.01756062      -2.72442052       0.00000000
