10
Lattice="16.290000149 0.0 0.0 0.0 16.290000149 0.0 0.0 0.0 29.1751946751" Properties=species:S:1:pos:R:3:initial_magmoms:R:1 pbc="T T T"
Si       1.45796104       1.17954262      -1.41749726       0.00000000
Si      -1.39401676      -1.32232447      -1.36588634       0.00000000
Si      -1.32996448       1.44031294       1.31440962       0.00000000
Si       1.38825010      -1.36010098       1.35676909       0.00000000
Si       0.14292846      -2.59434542      -2.56524941       0.00000000
Si       0.05740596       2.34864335      -2.88200450       0.00000000
H       -0.84668905       3.09210267      -1.90801980       0.00000000
Si      -2.67112019       0.02179602       2.67458637       0.00000000
Si       2.67860056       2.66823686      -0.01783480       0.00000000
Si      -2.61144992      -2.75662641       0.07704002       0.00000000
