10
Lattice="16.290000149 0.0 0.0 0.0 16.290000149 0.0 0.0 0.0 29.1751946751" Properties=species:S:1:pos:R:3:initial_magmoms:R:1 pbc="T T T"
Si      -1.65578240       1.00838359      -1.30488976       0.00000000
Si       1.35777151      -1.47971845      -1.22827570       0.00000000
Si      -0.90202618      -1.47000961       1.62867607       0.00000000
Si       0.39429945       1.83195713       1.47676083       0.00000000
H        0.28963620      -1.10218141       2.52759299       0.00000000
H       -1.36288983       1.25157700      -2.90675382       0.00000000
Si      -1.91987263       2.00026541       2.06787945       0.00000000
Si      -0.22967271       2.58787829      -2.65179179       0.00000000
Si       2.67708233      -0.11956860      -2.60029758       0.00000000
Si      -0.16689105      -2.81082324      -2.51102148       0.00000000
