10
Lattice="16.290000149 0.0 0.0 0.0 16.290000149 0.0 0.0 0.0 29.1751946751" Properties=species:S:1:pos:R:3:initial_magmoms:R:1 pbc="T T T"
Si      -1.51299892       1.24190074       1.27956569       0.00000000
Si       1.30041833       1.35927019      -1.44239245       0.00000000
Si      -1.42472341      -1.27114129      -1.40493150       0.00000000
Si       1.28928900      -1.34144893       1.50508994       0.00000000
H        1.46114622       1.34400646       2.91973678       0.00000000
Si      -2.89536834      -0.57640537       2.03447385       0.00000000
Si      -2.77324221      -2.29702034       0.22508663       0.00000000
Si       2.50741384      -2.62327158      -0.10363029       0.00000000
Si       2.59928618       0.37137942       2.63866296       0.00000000
Si       2.64572408       2.77145031      -0.11567965       0.00000000
