10
Lattice="16.290000149 0.0 0.0 0.0 16.290000149 0.0 0.0 0.0 29.1751946751" Properties=species:S:1:pos:R:3:initial_magmoms:R:1 pbc="T T T"
Si       1.36366849       1.36143676      -1.32995125       0.00000000
Si      -1.35075052       1.36475992       1.35550872       0.00000000
Si       1.38416131      -1.33789771       1.35031554       0.00000000
Si      -1.33503067      -1.35110890      -1.39434090       0.00000000
Si       2.70001865      -0.07993503      -2.61882382       0.00000000
Si      -2.69039126      -2.69498504      -0.01858460       0.00000000
Si      -0.02177973       2.71814942      -2.66906351       0.00000000
Si       0.02288745      -2.69995349       2.69392078       0.00000000
Si      -2.71948520       0.02111184       2.69882221       0.00000000
Si       0.01642032       2.72745101       2.70669951       0.00000000
