10
Lattice="16.290000149 0.0 0.0 0.0 16.290000149 0.0 0.0 0.0 29.1751946751" Properties=species:S:1:pos:R:3:initial_magmoms:R:1 pbc="T T T"
Si      -0.96995548       1.44829504       1.51807290       0.00000000
Si       1.56750526      -1.28225107       1.12312829       0.00000000
Si       1.61445304       1.02622114      -1.39714172       0.00000000
Si      -1.89441299      -1.50293170      -0.31547138       0.00000000
H       -0.37786284      -2.35602272      -2.02840541       0.00000000
H        0.75991222      -0.70902226      -3.15191298       0.00000000
H       -2.48681513      -1.60259392      -1.71754371       0.00000000
Si       0.17725149      -2.71917569       2.30090173       0.00000000
Si      -2.66233988       2.37860066       0.21189944       0.00000000
H        1.40626684      -1.13756329      -3.10473669       0.00000000
