10
Lattice="16.290000149 0.0 0.0 0.0 16.290000149 0.0 0.0 0.0 29.1751946751" Properties=species:S:1:pos:R:3:initial_magmoms:R:1 pbc="T T T"
Si       0.08136855      -0.69383998      -2.22950419       0.00000000
Si      -0.98841205      -1.78670514       1.15338589       0.00000000
Si       1.83927134       0.88132159       1.18592207       0.00000000
Si      -1.63305622       1.73534114      -0.08265858       0.00000000
H        2.53386065      -0.94561822      -0.73818494       0.00000000
Si      -2.30417165      -0.46358082       2.55346264       0.00000000
Si       0.55275229       2.33008904       2.51505349       0.00000000
Si      -2.12206574      -0.30827196      -3.03223050       0.00000000
Si      -2.07137126       1.98526232      -2.36548977       0.00000000
Si       2.02023695       0.33272325      -3.13215554       0.00000000
