10
Lattice="16.290000149 0.0 0.0 0.0 16.290000149 0.0 0.0 0.0 29.1751946751" Properties=species:S:1:pos:R:3:initial_magmoms:R:1 pbc="T T T"
Si       1.33955929      -1.35835795      -1.34327293       0.00000000
Si       1.30393306       1.18578169       1.55109018       0.00000000
Si      -1.32274801      -1.40323690       1.34019729       0.00000000
Si      -1.21800331       1.41358105      -1.44795353       0.00000000
Si      -0.16589736      -2.64448604      -2.62455996       0.00000000
Si       0.39768777       2.89955324      -2.38891191       0.00000000
Si      -2.70495452      -0.04574232       2.66306480       0.00000000
Si      -2.69923673       2.71524752      -0.11216725       0.00000000
Si      -0.01734885       2.67429977       2.75819927       0.00000000
Si      -2.73667115      -2.69796611      -0.00436607       0.00000000
