10
Lattice="16.290000149 0.0 0.0 0.0 16.290000149 0.0 0.0 0.0 29.1751946751" Properties=species:S:1:pos:R:3:initial_magmoms:R:1 pbc="T T T"
Si      -1.33850763      -1.41806080       1.31308799       0.00000000
Si       1.33985022      -1.35731539      -1.37739012       0.00000000
Si      -1.43618247       1.35092971      -1.29132329       0.00000000
Si       1.37919871       1.37103157       1.34675616       0.00000000
Si      -2.58329170      -0.04468347       2.71766938       0.00000000
Si      -0.05938423       2.67955841      -2.68257162       0.00000000
Si       2.71102351      -2.69757515      -0.01890553       0.00000000
Si      -0.00111894       2.76265664       2.64826160       0.00000000
Si       2.69895262      -0.00757485      -2.73330729       0.00000000
Si       2.71703452       2.71829574      -0.02418624       0.00000000
