10
Lattice="16.290000149 0.0 0.0 0.0 16.290000149 0.0 0.0 0.0 29.1751946751" Properties=species:S:1:pos:R:3:initial_magmoms:R:1 pbc="T T T"
Si       1.33033915      -1.41951061      -1.28601341       0.00000000
Si      -1.34889346      -1.37367707       1.33671989       0.00000000
Si       1.38603466       1.35011521       1.32446631       0.00000000
Si      -1.30067506       1.34926813      -1.41820621       0.00000000
Si       2.66357792      -0.07978842      -2.61536365       0.00000000
Si       0.01492164       2.69588099       2.66270332       0.00000000
Si      -2.67835295       2.69860142      -0.06803655       0.00000000
Si      -2.70883154      -0.01602936       2.67600721       0.00000000
Si      -2.72969903      -0.05429457      -2.66067564       0.00000000
Si       0.03425787      -2.73295704       2.65812281       0.00000000
