10
Lattice="16.290000149 0.0 0.0 0.0 16.290000149 0.0 0.0 0.0 29.1751946751" Properties=species:S:1:pos:R:3:initial_magmoms:R:1 pbc="T T T"
Si       1.33276636       1.32796081      -1.40169305       0.00000000
Si      -1.19897659       1.47116620       1.43244371       0.00000000
Si       1.47031912      -1.20920671       1.45581304       0.00000000
Si      -1.56884104      -1.12187602      -1.46299014       0.00000000
H        1.81995140      -3.02559060      -0.78428758       0.00000000
Si      -0.17580168       2.63599895      -2.69202439       0.00000000
Si      -2.52776819       0.09024660       2.80805705       0.00000000
Si       2.92174185       2.46176111      -0.06030513       0.00000000
H        2.01764684       3.20522043       0.91367957       0.00000000
Si      -2.60084513       2.89479819       0.21324150       0.00000000
