10
Lattice="16.290000149 0.0 0.0 0.0 16.290000149 0.0 0.0 0.0 29.1751946751" Properties=species:S:1:pos:R:3:initial_magmoms:R:1 pbc="T T T"
Si       1.75570364       1.02322378       1.15980151       0.00000000
Si       1.35561472      -1.28477602      -1.41966497       0.00000000
Si      -1.31875696      -1.29354004       1.47492279       0.00000000
Si      -1.23481459       1.48537108      -1.36277334       0.00000000
H       -3.16115598      -0.80211961      -1.58246256       0.00000000
Si      -2.30962880       0.46563336       2.75688085       0.00000000
Si      -2.50830164       0.01917333      -2.65966910       0.00000000
Si       3.42114438      -0.60761701       1.27530611       0.00000000
Si       2.82310590      -2.51167367      -0.07066232       0.00000000
Si       2.68366349       2.74592388      -0.12583261       0.00000000
