10
Lattice="16.290000149 0.0 0.0 0.0 16.290000149 0.0 0.0 0.0 29.1751946751" Properties=species:S:1:pos:R:3:initial_magmoms:R:1 pbc="T T T"
Si       1.81429877      -0.89220331       1.15078638       0.00000000
Si      -0.87490333       1.78002461       1.28344599       0.00000000
Si       1.12187602       1.43584948      -1.55392922       0.00000000
Si      -1.03102669      -2.14146713      -0.39404018       0.00000000
H       -1.93800503      -0.58419199      -1.88982324       0.00000000
Si       2.60159447       2.45286677      -0.08148632       0.00000000
Si      -0.05204655      -2.54703926      -2.54474801       0.00000000
Si      -1.96410161       0.62276671       2.99057415       0.00000000
Si       0.99614980       3.24376257       1.44236327       0.00000000
Si       3.57725145       0.59261392       0.81582597       0.00000000
