10
Lattice="16.290000149 0.0 0.0 0.0 16.290000149 0.0 0.0 0.0 29.1751946751" Properties=species:S:1:pos:R:3:initial_magmoms:R:1 pbc="T T T"
Si       1.37280718       1.38476404       1.30926604       0.00000000
Si       1.37112931      -1.34103028      -1.36443633       0.00000000
Si      -1.32348106       1.36425493      -1.39320307       0.00000000
Si      -1.36699165      -1.35976704       1.37633981       0.00000000
Si      -2.67322160      -2.67338450      -0.07042892       0.00000000
Si       2.67516011       0.00270414       2.68359276       0.00000000
Si      -2.68371236       2.71621091      -0.04046600       0.00000000
Si       2.70275537      -2.70845687       0.00796483       0.00000000
Si      -2.69123834       0.03533301       2.73975501       0.00000000
Si      -2.68323995       0.02059056      -2.75653074       0.00000000
