10
Lattice="16.290000149 0.0 0.0 0.0 16.290000149 0.0 0.0 0.0 29.1751946751" Properties=species:S:1:pos:R:3:initial_magmoms:R:1 pbc="T T T"
Si       1.35993808      -1.35764771      -1.33928731       0.00000000
Si       1.37327959       1.34750881       1.34290504       0.00000000
Si      -1.34480467      -1.35465686       1.36560334       0.00000000
Si      -1.33006222       1.37033110      -1.37190518       0.00000000
Si       0.00156384       2.70423776       2.67519030       0.00000000
Si       2.70883154       0.01602936      -2.67600721       0.00000000
Si       0.04536765      -2.70360245       2.69739262       0.00000000
Si       0.00402363      -2.72947097      -2.67714504       0.00000000
Si      -2.68903919       2.72618039      -0.01791357       0.00000000
Si      -2.70124040      -2.71818200       0.01590048       0.00000000
