10
Lattice="16.290000149 0.0 0.0 0.0 16.290000149 0.0 0.0 0.0 29.1751946751" Properties=species:S:1:pos:R:3:initial_magmoms:R:1 pbc="T T T"
Si       0.69799393      -2.04222682      -0.77620605       0.00000000
Si      -0.61618555      -0.51201099       2.18210034       0.00000000
Si      -1.81429877       0.89220331      -1.15078638       0.00000000
Si       1.76295269       1.48481722      -0.33496041       0.00000000
H        1.39240405       0.26415864      -2.92230420       0.00000000
Si       0.15856686       1.53402931       3.06004029       0.00000000
Si      -2.84532546      -1.24926382      -1.54482656       0.00000000
Si       2.15039405       2.13257279       1.88746004       0.00000000
Si      -0.69242275       2.32805279      -2.70471560       0.00000000
Si       0.78729571       3.34507008      -1.23227270       0.00000000
