10
Lattice="16.290000149 0.0 0.0 0.0 16.290000149 0.0 0.0 0.0 29.1751946751" Properties=species:S:1:pos:R:3:initial_magmoms:R:1 pbc="T T T"
Si      -1.37917657       1.36578619       1.31180428       0.00000000
Si      -1.37788966      -1.33537276      -1.34488895       0.00000000
Si       1.35710362       1.35562123      -1.35717171       0.00000000
Si       1.35549091      -1.35136954       1.36843333       0.00000000
Si       0.00379557       2.70519887       2.63901306       0.00000000
Si      -0.00677664      -2.68113854      -2.68312595       0.00000000
Si      -2.73538424       0.01576872       2.67390659       0.00000000
Si       2.71572221      -2.70332552       0.01569625       0.00000000
Si       0.00131949       2.72598491      -2.69628397       0.00000000
Si      -2.72836325      -2.69977430       0.01131998       0.00000000
