10
Lattice="16.290000149 0.0 0.0 0.0 16.290000149 0.0 0.0 0.0 29.1751946751" Properties=species:S:1:pos:R:3:initial_magmoms:R:1 pbc="T T T"
Si      -1.22269483      -1.32168916       1.49266131       0.00000000
Si       1.53254692       0.71956189       1.61359249       0.00000000
Si       0.62332057      -1.07774641      -2.04392661       0.00000000
Si      -1.48533850       1.86937526      -0.35208625       0.00000000
H        1.87600529      -1.83835421       0.72132751       0.00000000
H        3.09552357       0.31633551      -1.00167196       0.00000000
Si      -1.87277987       1.22161969      -2.57450670       0.00000000
Si       0.30602394       2.57455307       2.27700724       0.00000000
Si       3.16061841       1.39214341       0.05875884       0.00000000
Si      -2.55059048       0.22630068       2.65400911       0.00000000
