10
Lattice="16.290000149 0.0 0.0 0.0 16.290000149 0.0 0.0 0.0 29.1751946751" Properties=species:S:1:pos:R:3:initial_magmoms:R:1 pbc="T T T"
Si      -1.36327753      -1.34943103       1.35049059       0.00000000
Si      -1.39017232       1.34894559      -1.33178929       0.00000000
Si       1.32072805      -1.36850662      -1.38319598       0.00000000
Si       1.36120870       1.34263647       1.37753599       0.00000000
Si      -0.06442695       2.70482420       2.67589051       0.00000000
Si       0.01109349      -2.70088202       2.69520448       0.00000000
Si       2.69096141      -2.71003700      -0.03028385       0.00000000
Si      -0.04536765       2.70360245      -2.69739262       0.00000000
Si       2.69698871       2.70633917       0.00875256       0.00000000
Si       2.69772176      -0.01332522      -2.71527702       0.00000000
