10
Lattice="16.290000149 0.0 0.0 0.0 16.290000149 0.0 0.0 0.0 29.1751946751" Properties=species:S:1:pos:R:3:initial_magmoms:R:1 pbc="T T T"
Si       1.23007420      -1.47225763       1.36589509       0.00000000
Si      -1.34982199       1.07706223       1.60308942       0.00000000
Si      -1.40651119      -1.35197227      -1.33771185       0.00000000
Si       1.33599178       1.33213105      -1.43469020       0.00000000
H       -2.52802883       1.58674375       0.79309849       0.00000000
H        2.96300116       0.20458611       0.95432062       0.00000000
Si       2.67010859      -0.03860730       2.55618468       0.00000000
Si      -2.04151169      -0.78885955       3.02144151       0.00000000
Si      -0.40412232      -2.50686812       2.78742727       0.00000000
H       -1.88804360       3.25044147      -0.30251759       0.00000000
