10
Lattice="16.290000149 0.0 0.0 0.0 16.290000149 0.0 0.0 0.0 29.1751946751" Properties=species:S:1:pos:R:3:initial_magmoms:R:1 pbc="T T T"
Si       1.34990344       1.39566508      -1.30973867       0.00000000
Si      -1.32387202       1.35193969       1.38442134       0.00000000
Si      -1.33770223      -1.32437701      -1.40487315       0.00000000
Si       1.38544822      -1.35671266       1.33911226       0.00000000
Si       2.67118535      -0.09285300      -2.51684777       0.00000000
Si       0.02177973      -2.71814942       2.66906351       0.00000000
Si       2.71127504       2.67792941       0.09954576       0.00000000
Si      -0.03300354       2.72002115      -2.67519322       0.00000000
Si      -2.71135649      -0.00741195       2.68843584       0.00000000
Si      -2.69478956       2.71258476       0.07121665       0.00000000
