10
Lattice="16.290000149 0.0 0.0 0.0 16.290000149 0.0 0.0 0.0 29.1751946751" Properties=species:S:1:pos:R:3:initial_magmoms:R:1 pbc="T T T"
H        0.64635463      -0.42854103       0.04717629       0.00000000
H       -1.13777506      -1.64700047       1.12350757       0.00000000
Si      -1.85886821      -1.72364492      -0.20022936       0.00000000
Si       0.85454083       1.73524340       1.75477126       0.00000000
Si      -0.07012845       0.81837703      -2.57535278       0.00000000
Si      -2.18782847       0.22867902      -1.57321402       0.00000000
Si       2.63780714       0.18852417       1.12709612       0.00000000
Si       1.40193370      -0.99041572      -2.45946891       0.00000000
Si      -0.25342353      -2.51454071      -1.72407895       0.00000000
Si      -0.37214505       3.05908284       0.24101628       0.00000000
