10
Lattice="16.290000149 0.0 0.0 0.0 16.290000149 0.0 0.0 0.0 29.1751946751" Properties=species:S:1:pos:R:3:initial_magmoms:R:1 pbc="T T T"
Si      -1.33475374      -1.44801811       1.25803439       0.00000000
Si       1.34384356      -1.36534636      -1.35066564       0.00000000
Si      -1.38774511       1.34252407      -1.34742719       0.00000000
Si       1.25796268       1.36445041       1.45817623       0.00000000
Si      -2.69926931      -0.07726347       2.51603961       0.00000000
Si       2.63476091       2.69307911       0.06692790       0.00000000
Si      -0.02849121       2.70646949      -2.68983625       0.00000000
Si       2.69064858      -0.01127268      -2.70894600       0.00000000
Si       2.68665561      -2.72261288       0.01983913       0.00000000
Si      -0.02650383      -2.71233389      -2.70789569       0.00000000
