10
Lattice="16.290000149 0.0 0.0 0.0 16.290000149 0.0 0.0 0.0 29.1751946751" Properties=species:S:1:pos:R:3:initial_magmoms:R:1 pbc="T T T"
Si      -1.46961865       1.21231810       1.33625309       0.00000000
Si       1.18711747       1.53225370      -1.30567749       0.00000000
Si       1.43050636      -1.18517896       1.45207861       0.00000000
Si      -0.21623183      -1.84668329      -1.45091161       0.00000000
H       -2.94627459      -1.25591014      -1.43369824       0.00000000
Si       2.09794025      -2.01499157      -2.04203023       0.00000000
Si      -2.61983927      -0.42666768       2.52059094       0.00000000
Si       2.57771333       0.20062764      -2.62562164       0.00000000
Si       3.15185439      -1.94015531       0.07378407       0.00000000
Si      -0.01213116       2.59584410       2.69147006       0.00000000
