10
Lattice="16.290000149 0.0 0.0 0.0 16.290000149 0.0 0.0 0.0 29.1751946751" Properties=species:S:1:pos:R:3:initial_magmoms:R:1 pbc="T T T"
Si       1.39768201       1.41770731       1.25806357       0.00000000
Si      -1.26139987       1.39265655      -1.43040144       0.00000000
Si       1.43154892      -1.28466199      -1.40752809       0.00000000
Si      -1.29192733      -1.59286879       1.27609384       0.00000000
Si      -2.52568307      -2.72637587      -0.34966471       0.00000000
Si       0.28443969      -2.68027517       2.60146458       0.00000000
Si      -2.58564656       2.78775660      -0.06698625       0.00000000
Si       2.86661245       0.12706493       2.53205680       0.00000000
Si      -2.56762982       0.07903908      -2.87717017       0.00000000
Si       2.86773139      -2.63559170      -0.11620480       0.00000000
