10
Lattice="16.290000149 0.0 0.0 0.0 16.290000149 0.0 0.0 0.0 29.1751946751" Properties=species:S:1:pos:R:3:initial_magmoms:R:1 pbc="T T T"
Si      -1.39266469      -1.34353405      -1.32928022       0.00000000
Si      -1.35897697       1.35584929       1.35399161       0.00000000
Si       1.33006222      -1.37033110       1.37190518       0.00000000
Si       1.36054081       1.34429968      -1.37213858       0.00000000
Si      -0.03683169      -2.73915701      -2.61844455       0.00000000
Si       2.70760979       2.70102863      -0.00971534       0.00000000
Si      -2.70195391       2.71319726      -0.00991957       0.00000000
Si       2.70334181      -0.02282229       2.71481021       0.00000000
Si       2.69000030      -2.72797881       0.03261787       0.00000000
Si      -0.01181025       2.71800281       2.70524075       0.00000000
