10
Lattice="16.290000149 0.0 0.0 0.0 16.290000149 0.0 0.0 0.0 29.1751946751" Properties=species:S:1:pos:R:3:initial_magmoms:R:1 pbc="T T T"
Si       1.36127386      -1.36085032       1.29389071       0.00000000
Si      -1.30165246      -1.43211907      -1.33003877       0.00000000
Si       1.37723806       1.24838416      -1.43638236       0.00000000
Si      -1.19645164       1.40286223       1.48793493       0.00000000
Si      -2.55658520       2.64070676       0.03104241       0.00000000
Si      -2.63033492      -0.07164342      -2.69362902       0.00000000
Si       2.74036899       2.59245578      -0.13864053       0.00000000
Si       2.76068262      -0.01619226       2.58104195       0.00000000
Si       0.01295055      -2.66802509       2.68510987       0.00000000
Si      -2.57033396      -0.03152115       2.78421800       0.00000000
