10
Lattice="16.28999089631971 0.0 0.0 0.0 16.28999089631971 0.0 0.0 0.0 34.51530692428229" Properties=species:S:1:pos:R:3:initial_magmoms:R:1 pbc="T T T"
Si       0.48786921      -1.74807990      -1.55077361       0.00000000
Si       0.18023256       0.35730455       2.37382608       0.00000000
Si      -2.32446638       0.47171509      -0.48097107       0.00000000
Si       1.37394095       1.89604427      -0.72734147       0.00000000
Si      -0.69075857       2.50519742       2.28242949       0.00000000
Si      -2.61972263       2.32745723       0.92608072       0.00000000
Si       1.04519409       3.52943117       1.00405084       0.00000000
Si      -0.93681902      -3.66143814      -0.62866215       0.00000000
Si       2.59402937      -2.73507471      -0.72623698       0.00000000
Si       0.33481000      -0.65601459      -3.86081536       0.00000000
