10
Lattice="16.28999089631971 0.0 0.0 0.0 16.28999089631971 0.0 0.0 0.0 34.51530692428229" Properties=species:S:1:pos:R:3:initial_magmoms:R:1 pbc="T T T"
Si       1.43013982       1.68264690      -0.67415335       0.00000000
Si       0.45107824      -1.65835458      -1.65021226       0.00000000
Si      -2.31744702       0.42660252      -0.41149172       0.00000000
Si       0.55199479      -0.26432154       2.34258971       0.00000000
Si       1.02039745      -3.50119341      -0.39996360       0.00000000
Si      -0.76811748      -2.00407725       3.01746788       0.00000000
Si       3.63477955       0.73342467      -0.16567357       0.00000000
Si       0.65831962       3.61703879       0.59680451       0.00000000
Si      -3.44412858      -1.48967163       0.28789234       0.00000000
Si      -2.55938610      -0.00397476      -2.78897642       0.00000000
