10
Lattice="16.28999089631971 0.0 0.0 0.0 16.28999089631971 0.0 0.0 0.0 34.51530692428229" Properties=species:S:1:pos:R:3:initial_magmoms:R:1 pbc="T T T"
Si      -2.31977160       0.10010205      -0.47762308       0.00000000
Si       1.23792760       1.88397108      -0.75488470       0.00000000
Si       0.83972832      -1.77119541      -1.46800585       0.00000000
Si       0.19206562       1.36620972       2.33061289       0.00000000
Si       0.21745358       3.25289701       0.91306844       0.00000000
Si      -2.56382838       0.67996089      -2.76902656       0.00000000
Si       3.05942164      -2.24741727      -0.64112218       0.00000000
Si      -0.23651190      -3.82235076      -0.69696798       0.00000000
Si      -1.61066790       0.44429346       3.52696729       0.00000000
Si      -3.38111397       1.82586465       0.77562841       0.00000000
