10
Lattice="16.28999089631971 0.0 0.0 0.0 16.28999089631971 0.0 0.0 0.0 34.51530692428229" Properties=species:S:1:pos:R:3:initial_magmoms:R:1 pbc="T T T"
Si       1.83290193       0.85206148      -1.29921007       0.00000000
Si      -1.22163597       1.46948506       1.46008459       0.00000000
Si       1.48631589      -1.26722956       1.45725433       0.00000000
Si      -1.90726578      -1.02179025      -1.28012310       0.00000000
Si      -2.56580532       0.10934825       2.84212657       0.00000000
Si       2.79184536       2.66321626       0.08600874       0.00000000
Si       0.14623533      -2.60194698       2.84789063       0.00000000
Si      -2.71862181       2.75250175       0.03090502       0.00000000
Si       3.68009019      -0.65099727      -1.04229693       0.00000000
Si      -2.61395856      -2.88027792      -0.09540381       0.00000000
