10
Lattice="16.28999089631971 0.0 0.0 0.0 16.28999089631971 0.0 0.0 0.0 34.51530692428229" Properties=species:S:1:pos:R:3:initial_magmoms:R:1 pbc="T T T"
Si      -1.35694071      -1.35768116      -1.35655587       0.00000000
Si      -1.35720135       1.35748154       1.35676296       0.00000000
Si       1.35720135      -1.35693009       1.35738423       0.00000000
Si       1.35661491       1.35761186      -1.35804003       0.00000000
Si      -0.00022806      -2.71241925      -2.71369849       0.00000000
Si      -2.71375110       0.00092039       2.71345689       0.00000000
Si       2.71308321       0.00005539       2.71452686       0.00000000
Si      -0.00073305       2.71504127       2.71435428       0.00000000
Si       2.71479366      -2.71487904      -0.00048321       0.00000000
Si      -2.71524978      -2.71456953      -0.00003452       0.00000000
