10
Lattice="16.28999089631971 0.0 0.0 0.0 16.28999089631971 0.0 0.0 0.0 34.51530692428229" Properties=species:S:1:pos:R:3:initial_magmoms:R:1 pbc="T T T"
Si      -1.35775521      -1.34788347       1.37547372       0.00000000
Si       1.35804843       1.37029851       1.37492147       0.00000000
Si       1.22771214      -1.35698958      -1.53427183       0.00000000
Si      -1.29694464       1.37790594      -1.46616274       0.00000000
Si       2.36550348       0.17760987      -2.95604237       0.00000000
Si      -2.70379791      -2.70311373       0.01128996       0.00000000
Si       2.70449838      -2.70971118      -0.01342991       0.00000000
Si      -2.70350469       2.72178207      -0.00306496       0.00000000
Si       2.71391400       2.71319724       0.01907662       0.00000000
Si       0.00058644      -2.70583416       2.73499790       0.00000000
