10
Lattice="16.28999089631971 0.0 0.0 0.0 16.28999089631971 0.0 0.0 0.0 34.51530692428229" Properties=species:S:1:pos:R:3:initial_magmoms:R:1 pbc="T T T"
Si      -1.34244261      -1.36420605      -1.39614495       0.00000000
Si       1.37378457       1.35268902      -1.39476433       0.00000000
Si       1.26265419      -1.46295603       1.46168955       0.00000000
Si      -1.39693266       1.38383550       1.61766431       0.00000000
Si      -2.68711695       2.69241120      -0.02288366       0.00000000
Si      -2.71050939      -2.70342324      -0.02012244       0.00000000
Si       2.71808424       2.70091458      -0.01497965       0.00000000
Si       2.72191239      -2.71891503      -0.01884537       0.00000000
Si      -2.70225036      -0.00724905      -2.75404691       0.00000000
Si       0.01221750       2.70713736      -2.75515140       0.00000000
