10
Lattice="16.28999089631971 0.0 0.0 0.0 16.28999089631971 0.0 0.0 0.0 34.51530692428229" Properties=species:S:1:pos:R:3:initial_magmoms:R:1 pbc="T T T"
Si       0.84411522       0.94097556       1.96254145       0.00000000
Si      -2.22457869      -0.66275865       0.50257766       0.00000000
Si       1.77215652      -1.58281785      -0.12763768       0.00000000
Si      -1.93448637      -2.43646272      -1.09979635       0.00000000
Si       0.36937575      -3.21014812      -1.14187054       0.00000000
Si      -1.66410495       3.05419581       0.31105212       0.00000000
Si       1.83475899      -2.31062247       2.13073463       0.00000000
Si      -0.66008709       2.63638989       2.46342786       0.00000000
Si      -3.32164503       1.51941717      -0.41235460       0.00000000
Si       0.26445186       3.33534492      -1.73971050       0.00000000
