10
Lattice="16.28999089631971 0.0 0.0 0.0 16.28999089631971 0.0 0.0 0.0 34.51530692428229" Properties=species:S:1:pos:R:3:initial_magmoms:R:1 pbc="T T T"
Si      -1.22406318      -1.39564575       1.45337136       0.00000000
Si       1.95598917       0.84144366       1.10269564       0.00000000
Si       1.32941061      -1.36184400      -1.48488385       0.00000000
Si      -1.37552760       1.35855342      -1.47908527       0.00000000
Si      -2.00735154       0.16705395       3.17592774       0.00000000
Si       2.72792340       2.67744069      -0.15310999       0.00000000
Si       2.64754854      -2.78326053      -0.02008792       0.00000000
Si      -2.78560629      -2.67892308       0.14776011       0.00000000
Si      -2.81820258       2.68281639      -0.06029827       0.00000000
Si       3.51300366      -1.05718842       1.31921028       0.00000000
