10
Lattice="16.28999089631971 0.0 0.0 0.0 16.28999089631971 0.0 0.0 0.0 34.51530692428229" Properties=species:S:1:pos:R:3:initial_magmoms:R:1 pbc="T T T"
Si      -0.71816094      -2.15806662       0.27850417       0.00000000
Si      -1.82936700       1.36573731      -0.49315498       0.00000000
Si       1.07823510      -0.10793754      -2.09887699       0.00000000
Si       1.19780370       1.32260139       1.91111361       0.00000000
Si       1.45727082       2.23868583      -2.13805188       0.00000000
Si       2.27589219       2.77307928       0.02668035       0.00000000
Si       1.26006408      -3.32026038       0.90737341       0.00000000
Si      -2.12937993      -2.75159277      -1.55847052       0.00000000
Si      -3.80945397       0.21822084      -0.01252906       0.00000000
Si      -2.00792169       1.76160060      -2.79798492       0.00000000
