10
Lattice="16.28999089631971 0.0 0.0 0.0 16.28999089631971 0.0 0.0 0.0 34.51530692428229" Properties=species:S:1:pos:R:3:initial_magmoms:R:1 pbc="T T T"
Si       2.26070991      -0.81490725      -0.00269220       0.00000000
Si      -0.14955849       0.64685961       2.31024884       0.00000000
Si      -1.48353030      -1.80900450      -0.62728154       0.00000000
Si      -0.52098678       2.10778821      -1.42406784       0.00000000
Si      -1.69202601      -2.76354963       1.50390179       0.00000000
Si      -0.73757862      -1.46096865       3.20567995       0.00000000
Si       1.74654864       2.03575545       2.73506348       0.00000000
Si      -2.70361872       2.82211448      -0.62838603       0.00000000
Si      -3.58969046      -0.82200969      -1.45181817       0.00000000
Si       2.88065844      -1.84463073      -2.01455605       0.00000000
