10
Lattice="16.28999089631971 0.0 0.0 0.0 16.28999089631971 0.0 0.0 0.0 34.51530692428229" Properties=species:S:1:pos:R:3:initial_magmoms:R:1 pbc="T T T"
Si       0.94604175       1.89309348       0.87095974       0.00000000
Si       1.36471104      -0.86719815      -1.64103118       0.00000000
Si      -1.99251135       0.77885748      -1.01129906       0.00000000
Si       0.64021329      -1.68363666       1.54010837       0.00000000
Si      -3.05344647      -1.12744719      -0.21703237       0.00000000
Si       0.26886645      -2.87451711      -2.09528739       0.00000000
Si       1.00936098       3.39958283      -0.97322865       0.00000000
Si      -2.00345823      -2.37273624      -1.99105111       0.00000000
Si       3.51564264      -1.04326047      -0.70752967       0.00000000
Si       2.96279262       1.25845137       1.90534955       0.00000000
