10
Lattice="16.28999089631971 0.0 0.0 0.0 16.28999089631971 0.0 0.0 0.0 34.51530692428229" Properties=species:S:1:pos:R:3:initial_magmoms:R:1 pbc="T T T"
Si       1.05419106      -1.11837366      -1.70916444       0.00000000
Si      -2.25546453       0.14656113      -0.66448906       0.00000000
Si       1.13896422       2.05406216      -0.28699494       0.00000000
Si       0.41635611      -0.64552383       2.26896851       0.00000000
Si       0.84991446       2.86659107       1.92730130       0.00000000
Si       3.07094193      -1.75301577      -0.67477463       0.00000000
Si      -0.33345630       1.41146727       3.33649304       0.00000000
Si      -3.03599988       2.10791690       0.40431253       0.00000000
Si       1.11751029       0.38811569      -3.55335283       0.00000000
Si      -0.26047710       3.46218605      -1.70702449       0.00000000
