10
Lattice="16.28999089631971 0.0 0.0 0.0 16.28999089631971 0.0 0.0 0.0 34.51530692428229" Properties=species:S:1:pos:R:3:initial_magmoms:R:1 pbc="T T T"
Si      -1.35588186      -1.35698547      -1.35714263       0.00000000
Si      -1.35210258       1.35750760       1.36138801       0.00000000
Si       1.35738054      -1.35449552       1.36149156       0.00000000
Si       1.35891180       1.35806146      -1.35686650       0.00000000
Si      -2.71308321      -0.00005539      -2.71452686       0.00000000
Si      -2.71381626       2.71498588      -0.00017258       0.00000000
Si       0.00171045      -2.71493442      -2.71501008       0.00000000
Si       0.00203625       2.71532797      -2.71466492       0.00000000
Si      -2.71611315      -2.71532538       0.00058676       0.00000000
Si       2.71656927       0.00025738      -2.71511362       0.00000000
