10
Lattice="16.28999089631971 0.0 0.0 0.0 16.28999089631971 0.0 0.0 0.0 34.51530692428229" Properties=species:S:1:pos:R:3:initial_magmoms:R:1 pbc="T T T"
Si      -1.33688772       1.28355426      -1.52571548       0.00000000
Si       0.86490126       1.78728993       1.37370998       0.00000000
Si      -1.90987218      -1.00041777       1.17755938       0.00000000
Si       1.38021912      -1.43588205      -1.50724978       0.00000000
Si       2.66251905       2.63334366      -0.01963922       0.00000000
Si      -2.79614592       2.53951326      -0.04518056       0.00000000
Si       0.02407662       2.63912661      -2.90370536       0.00000000
Si       1.36130643       0.78512913       3.61206340       0.00000000
Si      -2.68441281      -0.07623720      -2.90080608       0.00000000
Si      -2.70734913      -2.90764187       0.03551627       0.00000000
