10
Lattice="16.28999089631971 0.0 0.0 0.0 16.28999089631971 0.0 0.0 0.0 34.51530692428229" Properties=species:S:1:pos:R:3:initial_magmoms:R:1 pbc="T T T"
Si      -0.49640517       1.00216080      -2.23835342       0.00000000
Si       1.75410720       0.67614903       1.70440132       0.00000000
Si       1.27231416      -2.11585760      -0.69613961       0.00000000
Si      -2.35263438      -0.46196811       0.93961073       0.00000000
Si       1.89512973      -1.53362205       2.57228920       0.00000000
Si      -0.10831221       3.61664064       0.73093106       0.00000000
Si      -1.36130643      -0.78512913      -3.61206340       0.00000000
Si       3.29774760       2.27328579       0.54972560       0.00000000
Si      -2.29003191      -1.18977273       3.19798303       0.00000000
Si       0.79824258       1.74320919       3.66804726       0.00000000
