10
Lattice="16.28999089631971 0.0 0.0 0.0 16.28999089631971 0.0 0.0 0.0 34.51530692428229" Properties=species:S:1:pos:R:3:initial_magmoms:R:1 pbc="T T T"
Si       1.41778386      -1.55702037      -0.87824248       0.00000000
Si      -0.29450691      -0.07541229       2.29544177       0.00000000
Si       0.45743949       1.98404185      -1.10694103       0.00000000
Si      -2.22164649      -0.78383181       0.01446192       0.00000000
Si      -1.78891893       2.33393476      -1.87873824       0.00000000
Si      -2.75506254      -0.04282586       2.21305369       0.00000000
Si       0.03155373      -3.45698823      -0.89940037       0.00000000
Si      -3.25619181       0.49783511      -1.61731916       0.00000000
Si       1.14087015      -1.45941069      -3.22148797       0.00000000
Si       3.58884990      -1.19574075       0.13512750       0.00000000
