10
Lattice="16.28999089631971 0.0 0.0 0.0 16.28999089631971 0.0 0.0 0.0 34.51530692428229" Properties=species:S:1:pos:R:3:initial_magmoms:R:1 pbc="T T T"
Si       1.35835794       1.35668007      -1.35676296       0.00000000
Si       1.35687555      -1.35726651       1.35779842       0.00000000
Si      -1.35742941       1.35744570       1.35738423       0.00000000
Si      -1.35850455      -1.35777150      -1.35790196       0.00000000
Si       2.71119357       0.00187335      -2.71545877       0.00000000
Si       2.71379997       0.00084708       2.71494104       0.00000000
Si      -0.00006516       2.71482624       2.71407816       0.00000000
Si       2.71453302      -2.71507059      -0.00044870       0.00000000
Si       2.71476108       2.71495656      -0.00024161       0.00000000
Si      -2.71511946       2.71472850      -0.00034515       0.00000000
