10
Lattice="16.28999089631971 0.0 0.0 0.0 16.28999089631971 0.0 0.0 0.0 34.51530692428229" Properties=species:S:1:pos:R:3:initial_magmoms:R:1 pbc="T T T"
Si       1.35509994       1.35190710      -1.37802440       0.00000000
Si      -1.36303317      -1.36360332      -1.37943953       0.00000000
Si       1.27540926      -1.36938627       1.50462662       0.00000000
Si      -1.40968773       1.27923741       1.46721200       0.00000000
Si      -0.52220853      -2.21544000       2.89797582       0.00000000
Si       2.71702539       2.69599500       0.00110449       0.00000000
Si       2.71104696      -2.71604799       0.00769692       0.00000000
Si      -2.72782566       2.70065394       0.00241607       0.00000000
Si      -2.72399751      -2.71917567      -0.00144964       0.00000000
Si      -0.00306252       2.70897813      -2.73816986       0.00000000
