10
Lattice="16.28999089631971 0.0 0.0 0.0 16.28999089631971 0.0 0.0 0.0 34.51530692428229" Properties=species:S:1:pos:R:3:initial_magmoms:R:1 pbc="T T T"
Si       0.46483515       2.18388627       0.69779635       0.00000000
Si       1.26708507       0.02867040      -1.97658919       0.00000000
Si       0.66482748      -1.92191049       1.25124961       0.00000000
Si      -2.39977764       0.40431780      -0.19335486       0.00000000
Si      -0.17168031      -3.60984282      -0.20336430       0.00000000
Si      -1.27754325       2.55692727       2.22496147       0.00000000
Si       0.09260865       3.45703122      -1.23264585       0.00000000
Si       0.80633871       2.10255030      -2.97069961       0.00000000
Si      -1.21117779       0.50779188       3.58358826       0.00000000
Si       0.43645797      -1.50501681      -3.48967206       0.00000000
