10
Lattice="16.28999089631971 0.0 0.0 0.0 16.28999089631971 0.0 0.0 0.0 34.51530692428229" Properties=species:S:1:pos:R:3:initial_magmoms:R:1 pbc="T T T"
Si       1.74237840      -0.37304100      -1.52716512       0.00000000
Si      -1.62126225       0.04834872      -1.76708116       0.00000000
Si       0.06636546      -2.04913539       1.35862679       0.00000000
Si       0.46325502       2.04543756       1.43545790       0.00000000
Si      -1.12223439      -2.15260947      -2.41831633       0.00000000
Si      -1.94486310      -1.40250384       2.53263109       0.00000000
Si       1.27754325      -2.55692727      -2.22496147       0.00000000
Si      -0.29729250       3.75640884       0.08929115       0.00000000
Si       1.37015190       0.90010395      -3.45760732       0.00000000
Si      -0.91844649       1.27089693      -3.62083030       0.00000000
