10
Lattice="16.28999089631971 0.0 0.0 0.0 16.28999089631971 0.0 0.0 0.0 34.51530692428229" Properties=species:S:1:pos:R:3:initial_magmoms:R:1 pbc="T T T"
Si       1.35703845      -1.35793440       1.35734972       0.00000000
Si      -1.35783666       1.35739683       1.35731520       0.00000000
Si      -1.35866745      -1.35698958      -1.35745326       0.00000000
Si       1.35832536       1.35845568      -1.35786745       0.00000000
Si       0.00009774       2.71288773       2.71497556       0.00000000
Si       2.71414206      -0.00008145       2.71435428       0.00000000
Si       2.71430496       2.71474479       0.00024161       0.00000000
Si      -0.00024435      -2.71538010       2.71400913       0.00000000
Si      -2.71528236       2.71443528       0.00000000       0.00000000
Si       2.71458189      -2.71524978      -0.00031064       0.00000000
