10
Lattice="16.28999089631971 0.0 0.0 0.0 16.28999089631971 0.0 0.0 0.0 34.51530692428229" Properties=species:S:1:pos:R:3:initial_magmoms:R:1 pbc="T T T"
Si       0.77193423       1.83599703      -1.25580563       0.00000000
Si      -0.31701969       1.13795424       2.08123966       0.00000000
Si      -1.95598917      -0.84144366      -1.10269564       0.00000000
Si       1.55701449      -1.89863208       0.21651464       0.00000000
Si       2.10465171       0.50845977      -2.61802201       0.00000000
Si      -0.62657856      -2.20328766      -2.58757949       0.00000000
Si       3.36170214      -0.93199977      -1.19509317       0.00000000
Si       0.40959576      -2.74675464       2.44385767       0.00000000
Si       2.66657526       2.57093667       0.04362737       0.00000000
Si      -0.17128935      -0.64348758       3.67422551       0.00000000
