10
Lattice="16.28999089631971 0.0 0.0 0.0 16.28999089631971 0.0 0.0 0.0 34.51530692428229" Properties=species:S:1:pos:R:3:initial_magmoms:R:1 pbc="T T T"
Si      -0.86545512      -1.72607211      -1.33929820       0.00000000
Si      -1.55701449       1.89863208      -0.21651464       0.00000000
Si       1.80468765       0.96663231      -1.41160781       0.00000000
Si       2.14920486      -0.95871537       1.15087904       0.00000000
Si      -1.14741873      -0.84812256       2.22734303       0.00000000
Si      -2.18359305      -0.30465558      -2.80409413       0.00000000
Si       0.54763722       2.40709185      -2.83453665       0.00000000
Si      -3.51300366       1.05718842      -1.31921028       0.00000000
Si       2.90739033       2.61750978      -0.13902773       0.00000000
Si      -1.97692182      -3.40097733       0.10444338       0.00000000
