10
Lattice="16.28999089631971 0.0 0.0 0.0 16.28999089631971 0.0 0.0 0.0 34.51530692428229" Properties=species:S:1:pos:R:3:initial_magmoms:R:1 pbc="T T T"
Si      -2.19449106      -0.91859310      -0.56998610       0.00000000
Si       1.55753577      -1.75814712       0.83340707       0.00000000
Si      -0.58088511       2.10326706       1.23036783       0.00000000
Si       1.14741873       0.84812256      -2.22734303       0.00000000
Si      -0.82950309      -2.55285477      -2.12289965       0.00000000
Si       3.29662359      -0.11059281      -1.07646399       0.00000000
Si       0.28196361      -0.87794955      -3.56664123       0.00000000
Si      -0.40959576       2.74675464      -2.44385767       0.00000000
Si       1.42159572       2.52104040       2.41086102       0.00000000
Si       0.57712212      -2.49847875       2.92482874       0.00000000
