10
Lattice="16.28999089631971 0.0 0.0 0.0 16.28999089631971 0.0 0.0 0.0 34.51530692428229" Properties=species:S:1:pos:R:3:initial_magmoms:R:1 pbc="T T T"
Si      -0.50842719      -2.23697538       0.01073427       0.00000000
Si       2.15130627       0.16519689       0.91299941       0.00000000
Si      -1.63936044       1.08729234       1.29252994       0.00000000
Si      -0.69038649       0.98489340      -2.09314744       0.00000000
Si      -2.79702558      -1.86618240      -0.15248871       0.00000000
Si      -0.06491565       3.21554826      -1.50535144       0.00000000
Si      -1.24323651       3.28660524       0.51973178       0.00000000
Si      -3.56581584       0.34451721       0.15449060       0.00000000
Si       2.66553270       2.46205431       0.94199228       0.00000000
Si       2.26250181       2.78912493      -1.35990385       0.00000000
