10
Lattice="16.28999089631971 0.0 0.0 0.0 16.28999089631971 0.0 0.0 0.0 34.51530692428229" Properties=species:S:1:pos:R:3:initial_magmoms:R:1 pbc="T T T"
Si      -0.58516938      -0.82560978      -2.07154085       0.00000000
Si       2.28859839      -0.37079298       0.16322298       0.00000000
Si      -0.70281576      -1.22254821       1.85374914       0.00000000
Si      -0.76879026       2.21069961       0.30697931       0.00000000
Si       2.79702558       1.86618240       0.15248871       0.00000000
Si      -2.94228351      -0.53307396       1.74713130       0.00000000
Si       1.15766514       2.95347474       1.44501865       0.00000000
Si      -2.56324779       1.81354941       1.70795640       0.00000000
Si      -0.20378790      -3.42350640       1.20251397       0.00000000
Si      -1.14013710       1.01981916      -3.32841645       0.00000000
