10
Lattice="16.28999089631971 0.0 0.0 0.0 16.28999089631971 0.0 0.0 0.0 34.51530692428229" Properties=species:S:1:pos:R:3:initial_magmoms:R:1 pbc="T T T"
Si       1.38223908      -1.26205146       1.50262473       0.00000000
Si       0.84178575       2.04965082      -1.00752274       0.00000000
Si      -1.35198855       1.43341853       1.49202852       0.00000000
Si      -0.65396205      -1.90778706      -1.46983659       0.00000000
Si      -2.57976585      -2.66105295       0.03478109       0.00000000
Si       2.59895547      -2.74595643       0.07218535       0.00000000
Si       0.02171457      -2.61482193       2.88042132       0.00000000
Si      -1.00540251       3.55270958      -1.26443588       0.00000000
Si      -2.83830444       2.70064809       0.03477419       0.00000000
Si      -2.69206911       0.09870111       2.88266482       0.00000000
