10
Lattice="16.28999089631971 0.0 0.0 0.0 16.28999089631971 0.0 0.0 0.0 34.51530692428229" Properties=species:S:1:pos:R:3:initial_magmoms:R:1 pbc="T T T"
Si       0.87099113      -2.14789286       0.09139658       0.00000000
Si      -1.92896406      -0.17774019      -1.35634877       0.00000000
Si      -0.54636660       1.08638010       2.04713851       0.00000000
Si       1.73595267       1.02423375      -1.27837865       0.00000000
Si       0.69075857      -2.50519742      -2.28242949       0.00000000
Si       2.99441870      -1.42927646       1.01043617       0.00000000
Si       3.40683263       0.86004684       0.39533855       0.00000000
Si      -2.88256437       1.46030076       1.46148246       0.00000000
Si      -2.06998659       2.03203089      -2.22423665       0.00000000
Si      -0.73635687      -3.36356639       1.28321080       0.00000000
