10
Lattice="16.28999089631971 0.0 0.0 0.0 16.28999089631971 0.0 0.0 0.0 34.51530692428229" Properties=species:S:1:pos:R:3:initial_magmoms:R:1 pbc="T T T"
Si       1.48370202       1.82620674       0.28568336       0.00000000
Si       0.54636660      -1.08638010      -2.04713851       0.00000000
Si      -2.33619777       0.37392066      -0.58565606       0.00000000
Si       0.59515515      -0.38631735       2.33413345       0.00000000
Si       1.18639648       3.26166525      -1.44788342       0.00000000
Si      -0.33296760       1.65297888       3.39692938       0.00000000
Si      -3.50181243       0.36619920       1.42655295       0.00000000
Si      -0.71193816      -2.21345751       3.01273928       0.00000000
Si       0.65213757       3.22423083       1.97010030       0.00000000
Si      -1.38259746      -1.26412029      -3.40348729       0.00000000
