10
Lattice="16.28999089631971 0.0 0.0 0.0 16.28999089631971 0.0 0.0 0.0 34.51530692428229" Properties=species:S:1:pos:R:3:initial_magmoms:R:1 pbc="T T T"
Si       2.22714504      -0.50563671       0.65875952       0.00000000
Si      -1.37142252      -1.93266908       0.52131949       0.00000000
Si      -1.06096770       1.19946528       1.86206733       0.00000000
Si      -0.05411538       0.81880056      -2.35225400       0.00000000
Si       1.51397631       2.59411734      -1.95387810       0.00000000
Si      -3.54121794      -1.10423557       0.07772851       0.00000000
Si      -0.31008015      -3.65843168      -0.73193201       0.00000000
Si       2.20175707      -2.39232401       2.07630396       0.00000000
Si       3.24761905      -1.87456265      -1.00919362       0.00000000
Si       0.62895690      -1.11610609      -3.70811956       0.00000000
