10
Lattice="16.28999089631971 0.0 0.0 0.0 16.28999089631971 0.0 0.0 0.0 34.51530692428229" Properties=species:S:1:pos:R:3:initial_magmoms:R:1 pbc="T T T"
Si       1.38741930       1.65819168       0.92325046       0.00000000
Si      -1.88696844       1.13309982      -0.84569452       0.00000000
Si       0.14328684      -1.63879029       1.72207317       0.00000000
Si       0.95586462      -1.06706016      -1.96364594       0.00000000
Si      -0.84191607      -3.28287483       0.30173298       0.00000000
Si      -0.90655479       1.87343145      -2.93711620       0.00000000
Si       1.09688715      -3.27683124      -1.09575806       0.00000000
Si      -2.10069324       2.94229980       0.62134490       0.00000000
Si       1.58925240       3.50226855      -0.46077960       0.00000000
Si       2.47948461      -2.01271095       2.30772923       0.00000000
