10
Lattice="16.28999089631971 0.0 0.0 0.0 16.28999089631971 0.0 0.0 0.0 34.51530692428229" Properties=species:S:1:pos:R:3:initial_magmoms:R:1 pbc="T T T"
Si      -0.44891982       1.58115627      -1.62291064       0.00000000
Si       2.25801296      -0.54613854      -0.53553980       0.00000000
Si      -1.56809169      -1.77531678      -0.39837590       0.00000000
Si      -0.06530661       1.35826020       2.00658300       0.00000000
Si       1.54370786       2.79604818      -1.58649697       0.00000000
Si      -1.51397631      -2.59411734       1.95387810       0.00000000
Si      -2.19576168       2.34895284       1.80546220       0.00000000
Si      -1.93214061       3.17615904      -0.69406869       0.00000000
Si      -0.93545325       0.48373155      -3.72178763       0.00000000
Si       3.40334657       1.35306369      -1.31082306       0.00000000
