10
Lattice="16.28999089631971 0.0 0.0 0.0 16.28999089631971 0.0 0.0 0.0 34.51530692428229" Properties=species:S:1:pos:R:3:initial_magmoms:R:1 pbc="T T T"
Si       0.67344067      -0.78626943       2.07859548       0.00000000
Si      -2.13045507       0.99069264      -0.20112081       0.00000000
Si       1.79587380       1.61490915       0.13191758       0.00000000
Si       0.06530661      -1.35826020      -2.00658300       0.00000000
Si       3.58032113       0.12124647       0.31605684       0.00000000
Si      -0.38361321       0.22289607      -3.62949364       0.00000000
Si      -1.86683400       1.81789884      -2.70065170       0.00000000
Si      -3.63956067      -0.71109108       0.65772406       0.00000000
Si       1.62411041       0.94943007       3.38235497       0.00000000
Si       1.78857914       2.96461710      -1.77146460       0.00000000
