10
Lattice="16.28999089631971 0.0 0.0 0.0 16.28999089631971 0.0 0.0 0.0 34.51530692428229" Properties=species:S:1:pos:R:3:initial_magmoms:R:1 pbc="T T T"
Si       0.14196735       1.52348967       1.88129237       0.00000000
Si       1.84018586      -1.12953231      -1.22950495       0.00000000
Si      -1.04710491       1.59643629      -1.60510073       0.00000000
Si      -1.80529038      -1.97978886      -0.31519396       0.00000000
Si      -2.20884255       1.99589967       1.84080589       0.00000000
Si      -1.10925126      -2.84478786       1.85837419       0.00000000
Si      -2.14980759      -0.05444118      -2.87768081       0.00000000
Si       3.41689985      -1.54720791       0.59269718       0.00000000
Si       1.56665558       3.43684791       0.95918092       0.00000000
Si       0.67100990      -2.70448209      -2.75908615       0.00000000
