10
Lattice="16.28999089631971 0.0 0.0 0.0 16.28999089631971 0.0 0.0 0.0 34.51530692428229" Properties=species:S:1:pos:R:3:initial_magmoms:R:1 pbc="T T T"
Si       1.35856971      -1.35456237       1.35986934       0.00000000
Si      -1.35715248       1.35951632       1.35983482       0.00000000
Si      -1.35452979      -1.35599589      -1.37638147       0.00000000
Si       1.37440359       1.35008262      -1.37508714       0.00000000
Si      -2.71505430      -2.70876636       0.00141513       0.00000000
Si      -2.71191033       2.71732905      -0.00200189       0.00000000
Si       0.00099369      -2.71248048       2.71752969       0.00000000
Si      -2.71381626       0.00229689       2.71687390       0.00000000
Si       2.71868697      -2.71337643      -0.00220898       0.00000000
Si       2.71627605       0.00280188       2.71732260       0.00000000
