10
Lattice="16.28999089631971 0.0 0.0 0.0 16.28999089631971 0.0 0.0 0.0 34.51530692428229" Properties=species:S:1:pos:R:3:initial_magmoms:R:1 pbc="T T T"
Si      -1.35852084      -1.35619137      -1.35734972       0.00000000
Si       1.35826020      -1.35790182       1.35741875       0.00000000
Si       1.35687555       1.35932321      -1.35748778       0.00000000
Si      -1.36047564       1.36213307       1.36135350       0.00000000
Si       2.71244790      -2.71332756      -0.00120804       0.00000000
Si      -0.00133578      -2.71308321      -2.71449235       0.00000000
Si       2.71577106      -0.00273672       2.71255949       0.00000000
Si       2.71394658       0.00219915      -2.71469944       0.00000000
Si       2.71454931       2.71490999      -0.00138061       0.00000000
Si      -2.71554300      -2.71494027       0.00024161       0.00000000
