10
Lattice="16.28999089631971 0.0 0.0 0.0 16.28999089631971 0.0 0.0 0.0 34.51530692428229" Properties=species:S:1:pos:R:3:initial_magmoms:R:1 pbc="T T T"
Si       1.35437189      -1.35047358       1.36166413       0.00000000
Si      -1.35418770       1.35542574       1.35862679       0.00000000
Si      -1.35622395      -1.35702216      -1.35634877       0.00000000
Si       1.35866199       1.35798327      -1.35596911       0.00000000
Si      -2.70747945      -0.01115865       2.71097178       0.00000000
Si       0.00332316       2.71059084       2.71376752       0.00000000
Si      -2.71244790       2.71332756       0.00120804       0.00000000
Si      -2.71378368       0.00024435      -2.71328431       0.00000000
Si      -2.71394658      -2.71458189       0.00082837       0.00000000
Si       0.00118917      -2.71479366      -2.71394010       0.00000000
