10
Lattice="16.28999089631971 0.0 0.0 0.0 16.28999089631971 0.0 0.0 0.0 34.51530692428229" Properties=species:S:1:pos:R:3:initial_magmoms:R:1 pbc="T T T"
Si      -0.97011837       0.04704552       2.16728636       0.00000000
Si       0.79965981       1.91840814      -1.21576785       0.00000000
Si      -1.89464103      -0.73493964      -1.29943300       0.00000000
Si       1.79782956      -1.85205897       0.03385954       0.00000000
Si      -0.56192355      -2.06247690      -2.66164938       0.00000000
Si       2.14887906       0.65927259      -2.65885364       0.00000000
Si       3.44202813      -0.62890803      -1.16016366       0.00000000
Si      -2.66657526      -2.57093667      -0.04362737       0.00000000
Si       0.69512688      -3.50293644      -1.23872054       0.00000000
Si       0.63609192      -1.45259559       3.47976616       0.00000000
