10
Lattice="16.28999089631971 0.0 0.0 0.0 16.28999089631971 0.0 0.0 0.0 34.51530692428229" Properties=species:S:1:pos:R:3:initial_magmoms:R:1 pbc="T T T"
Si       0.23589549       1.08071118       2.05331818       0.00000000
Si       1.24051608       1.85898222      -0.82691819       0.00000000
Si      -2.31827877       0.51684912      -0.39561467       0.00000000
Si       0.03308499      -2.42494569      -0.40282837       0.00000000
Si      -0.93154365      -0.56422044       3.25898684       0.00000000
Si       0.17917371       3.58474482       0.42633331       0.00000000
Si      -2.62894536      -1.62266319       1.88698740       0.00000000
Si      -2.29047174      -2.87412615      -0.59093690       0.00000000
Si      -3.05101926      -1.16315487      -1.93710365       0.00000000
Si       1.37314926      -2.66142762      -2.44199384       0.00000000
