10
Lattice="16.28999089631971 0.0 0.0 0.0 16.28999089631971 0.0 0.0 0.0 34.51530692428229" Properties=species:S:1:pos:R:3:initial_magmoms:R:1 pbc="T T T"
Si       1.85715448      -1.05264351       0.88928738       0.00000000
Si      -1.72153764      -1.49890806      -0.37266198       0.00000000
Si      -0.66885763       1.75179402       1.36342442       0.00000000
Si       1.11965731       0.25467786      -2.05400706       0.00000000
Si       1.92850468      -2.72010420      -0.82919620       0.00000000
Si      -0.30615915      -3.42205659      -0.33538542       0.00000000
Si      -3.45606426      -0.35772840       0.90675213       0.00000000
Si       3.48252181       0.60732378       0.70425072       0.00000000
Si       0.65125465       3.49154973       0.68854624       0.00000000
Si      -2.94183783       1.93912902       0.93574501       0.00000000
