10
Lattice="16.28999089631971 0.0 0.0 0.0 16.28999089631971 0.0 0.0 0.0 34.51530692428229" Properties=species:S:1:pos:R:3:initial_magmoms:R:1 pbc="T T T"
Si      -1.37044838      -1.33902171       1.38269777       0.00000000
Si      -1.40648186       1.33032841      -1.35765000       0.00000000
Si       1.34770428       1.37155677       1.38193844       0.00000000
Si       1.29955104      -1.61806941      -1.55559195       0.00000000
Si       2.00624382       0.24041826      -2.74031123       0.00000000
Si      -2.25532444      -0.49508568      -2.70044603       0.00000000
Si       2.69187363       2.73169358      -0.00010355       0.00000000
Si       2.72427444      -2.70482418       0.00244023       0.00000000
Si      -2.72087501      -2.71120986      -0.00443177       0.00000000
Si      -2.72982664       2.71133108       0.02741207       0.00000000
