10
Lattice="16.28999089631971 0.0 0.0 0.0 16.28999089631971 0.0 0.0 0.0 34.433804113860816" Properties=species:S:1:pos:R:3:initial_magmoms:R:1 pbc="T T T"
Si      -1.34959865      -1.35043123       1.38992472       0.00000000
Si       1.36528039       1.36280511       1.38613700       0.00000000
Si      -1.32930131       1.36624230      -1.49361185       0.00000000
Si       1.30490639      -1.47538530      -1.45028722       0.00000000
Si      -2.70018626      -2.70748664       0.00463824       0.00000000
Si       2.70870366      -2.72016026       0.02532952       0.00000000
Si      -2.69647214       2.73693177       0.00157707       0.00000000
Si       2.72183340       2.72567538       0.01287136       0.00000000
Si      -2.70851045       0.00724905       2.75071499       0.00000000
Si       0.00725300      -2.70940352       2.75078386       0.00000000
