10
Lattice="16.28999089631971 0.0 0.0 0.0 16.28999089631971 0.0 0.0 0.0 34.433804113860816" Properties=species:S:1:pos:R:3:initial_magmoms:R:1 pbc="T T T"
Si       1.71235430      -0.78340239       1.59459593       0.00000000
Si       0.75881915       1.19130399      -2.05769642       0.00000000
Si      -1.01048173      -2.26497789      -0.64318939       0.00000000
Si      -1.17649084       2.02277817       1.28513916       0.00000000
Si       0.06392359      -1.75181031       3.01146653       0.00000000
Si       2.21424920       2.74421896      -1.00061247       0.00000000
Si      -1.82691603      -1.65325581      -2.93445043       0.00000000
Si      -1.81318356       3.33320508      -0.67321568       0.00000000
Si      -0.73913432      -3.46559976       1.61578568       0.00000000
Si      -2.74383126       0.93330297       2.72853414       0.00000000
