10
Lattice="16.28999089631971 0.0 0.0 0.0 16.28999089631971 0.0 0.0 0.0 34.433804113860816" Properties=species:S:1:pos:R:3:initial_magmoms:R:1 pbc="T T T"
Si      -1.35479043      -1.35854202       1.35593510       0.00000000
Si      -1.35643572       1.35759231      -1.35676151       0.00000000
Si       1.35731538       1.35900954       1.35724358       0.00000000
Si       1.35876519      -1.35730398      -1.35793226       0.00000000
Si      -0.00692325      -2.70558071       2.70973530       0.00000000
Si      -2.71371852      -2.71394594       0.00020660       0.00000000
Si      -2.71453302       0.00042354      -2.71465933       0.00000000
Si       2.71666701       0.00107514      -2.71279991       0.00000000
Si      -2.71445157       2.71544526       0.00086085       0.00000000
Si       2.71585251      -2.71433658       0.00048207       0.00000000
