10
Lattice="16.28999089631971 0.0 0.0 0.0 16.28999089631971 0.0 0.0 0.0 34.433804113860816" Properties=species:S:1:pos:R:3:initial_magmoms:R:1 pbc="T T T"
Si       1.33885881       1.34314308      -1.38496281       0.00000000
Si      -1.37428956      -1.36964691      -1.38120952       0.00000000
Si      -1.31861034       1.41051852       1.48082657       0.00000000
Si       1.37775933      -1.41626889       1.42080842       0.00000000
Si      -2.11336686      -0.53527311       2.77357560       0.00000000
Si      -0.41228361      -2.41041501       2.68948821       0.00000000
Si       2.69791722       2.69705385       0.00141179       0.00000000
Si      -2.73470819       2.67836922      -0.01942068       0.00000000
Si       2.69190621      -2.74269843      -0.02758149       0.00000000
Si       2.69827560      -0.01172880      -2.74475449       0.00000000
