10
Lattice="16.28999089631971 0.0 0.0 0.0 16.28999089631971 0.0 0.0 0.0 34.433804113860816" Properties=species:S:1:pos:R:3:initial_magmoms:R:1 pbc="T T T"
Si      -0.36672048       2.36466129       0.20880670       0.00000000
Si      -0.03976389      -1.28959948      -2.03149228       0.00000000
Si      -1.53663570      -1.46011294       1.13951852       0.00000000
Si       2.02403250       0.15827853       1.29381648       0.00000000
Si      -1.77108138      -0.05137703      -3.08733660       0.00000000
Si      -1.26501624       2.28980874       2.48033716       0.00000000
Si       1.83277161       3.07376499      -0.49474517       0.00000000
Si       1.31074227      -0.80954621       3.29851924       0.00000000
Si      -2.49673572      -2.83353377      -0.54560393       0.00000000
Si      -0.38827215      -2.37453044       2.98555022       0.00000000
