10
Lattice="16.28999089631971 0.0 0.0 0.0 16.28999089631971 0.0 0.0 0.0 34.433804113860816" Properties=species:S:1:pos:R:3:initial_magmoms:R:1 pbc="T T T"
Si       1.35571896       1.35545832       1.35927518       0.00000000
Si      -1.35933534      -1.35972630       1.35927518       0.00000000
Si      -1.36445040       1.36065483      -1.35669264       0.00000000
Si       1.35780408      -1.36860435      -1.35707141       0.00000000
Si       2.71308321       2.71189404       0.00151509       0.00000000
Si       2.71322982      -0.00228060       2.71634659       0.00000000
Si       2.71376739      -2.71624347       0.00323678       0.00000000
Si      -2.71738377       2.71301805       0.00251367       0.00000000
Si      -0.00255753       2.71344159       2.71696640       0.00000000
Si      -0.00289962      -2.71731861       2.71603668       0.00000000
