10
Lattice="16.28999089631971 0.0 0.0 0.0 16.28999089631971 0.0 0.0 0.0 34.433804113860816" Properties=species:S:1:pos:R:3:initial_magmoms:R:1 pbc="T T T"
Si      -1.03521321      -1.69973837      -1.29946363       0.00000000
Si       1.79004294       0.99414612      -1.26867979       0.00000000
Si       0.55649898      -1.77081164       1.70478416       0.00000000
Si      -1.70108325       1.87514190       0.08408740       0.00000000
Si      -2.83185686      -1.15363662       1.45131679       0.00000000
Si      -0.79837290       2.77309557       2.07481003       0.00000000
Si      -2.33413220      -0.32111011      -2.71001077       0.00000000
Si       0.41228361       2.41041501      -2.68948821       0.00000000
Si      -2.37354097      -3.18602168       0.01353249       0.00000000
Si       3.46115259       1.94843061       0.12613109       0.00000000
