10
Lattice="16.28999089631971 0.0 0.0 0.0 16.28999089631971 0.0 0.0 0.0 34.433804113860816" Properties=species:S:1:pos:R:3:initial_magmoms:R:1 pbc="T T T"
Si      -1.92116115      -1.06144011      -0.81301700       0.00000000
Si       0.29957310       2.23063857      -0.67776095       0.00000000
Si       2.02530312      -1.09273320      -0.56533451       0.00000000
Si      -0.19355778       0.20165391       2.37741447       0.00000000
Si      -0.77774976      -2.29034142       2.27228800       0.00000000
Si      -3.56669550       0.62038836      -0.83044052       0.00000000
Si      -2.36156130      -2.78285328       0.71443297       0.00000000
Si      -1.26255645      -2.08471275      -2.81355327       0.00000000
Si       2.33556246       2.89250127       0.35473725       0.00000000
Si       2.67235821      -0.38519334      -2.75563558       0.00000000
