10
Lattice="16.28999089631971 0.0 0.0 0.0 16.28999089631971 0.0 0.0 0.0 34.433804113860816" Properties=species:S:1:pos:R:3:initial_magmoms:R:1 pbc="T T T"
Si      -0.81466290      -1.74531060       1.36687010       0.00000000
Si       1.78821846       0.80096301       1.36386059       0.00000000
Si       0.56723409      -1.84117725      -1.48117006       0.00000000
Si      -1.88587701       1.78724106      -0.01218872       0.00000000
Si      -2.17075653      -0.48940047       2.74584832       0.00000000
Si       0.54521001       2.23221870       2.71633509       0.00000000
Si      -2.64653856      -2.65748544       0.25725254       0.00000000
Si       2.95906221       2.34287667      -0.00759965       0.00000000
Si      -1.63896948      -2.92478805      -1.80161122       0.00000000
Si      -0.92308914       3.48887817       1.30741322       0.00000000
