10
Lattice="16.28999089631971 0.0 0.0 0.0 16.28999089631971 0.0 0.0 0.0 34.433804113860816" Properties=species:S:1:pos:R:3:initial_magmoms:R:1 pbc="T T T"
Si       1.42897509      -1.78031781      -0.52408279       0.00000000
Si      -0.44147529      -0.55084635       2.30472466       0.00000000
Si       1.09977048       2.14273773      -0.27450644       0.00000000
Si      -1.43213535      -0.24575094      -2.05786859       0.00000000
Si      -1.83858714       1.38417759       2.32039205       0.00000000
Si      -3.28862520       0.68763348       0.43510579       0.00000000
Si       2.17450323       1.49929902      -2.23936927       0.00000000
Si      -3.06245484      -1.68342489      -0.31207374       0.00000000
Si       3.44184894      -0.64293372       0.25501690       0.00000000
Si       0.34101486       0.56141856      -3.48614914       0.00000000
