10
Lattice="16.28999089631971 0.0 0.0 0.0 16.28999089631971 0.0 0.0 0.0 34.433804113860816" Properties=species:S:1:pos:R:3:initial_magmoms:R:1 pbc="T T T"
Si       1.77315021       0.80716950      -1.42828056       0.00000000
Si      -0.97927335      -1.83295080      -1.36540440       0.00000000
Si       1.43213535       0.24575094       2.05786859       0.00000000
Si      -1.80937917       1.73433114       0.25453482       0.00000000
Si      -1.63031949      -1.43767395       1.74579484       0.00000000
Si      -1.85648985       0.93338442       2.49297438       0.00000000
Si       0.40151592       2.19559878      -2.79619863       0.00000000
Si       2.86111044      -1.53456687       1.53378579       0.00000000
Si      -2.31811587      -0.53564778      -2.80566793       0.00000000
Si      -2.87919234      -2.51199945      -0.12392733       0.00000000
