10
Lattice="16.28999089631971 0.0 0.0 0.0 16.28999089631971 0.0 0.0 0.0 34.433804113860816" Properties=species:S:1:pos:R:3:initial_magmoms:R:1 pbc="T T T"
Si      -1.25928216      -2.06483895       0.24950748       0.00000000
Si       1.31830083       0.82560978       1.91035409       0.00000000
Si      -1.52756217       1.57644846      -1.22305497       0.00000000
Si       2.33280945      -0.79503345      -0.58565047       0.00000000
Si       0.37436049      -3.58365339      -0.52001960       0.00000000
Si       3.08166075      -0.90432306       1.92192385       0.00000000
Si      -1.06240122       0.85375890      -3.51713959       0.00000000
Si       2.41034985      -2.92179069       0.51247859       0.00000000
Si       2.35669059       2.86979301       1.23899783       0.00000000
Si       2.46163077      -1.60379937      -2.76954685       0.00000000
