10
Lattice="16.28999089631971 0.0 0.0 0.0 16.28999089631971 0.0 0.0 0.0 34.433804113860816" Properties=species:S:1:pos:R:3:initial_magmoms:R:1 pbc="T T T"
Si      -1.34786718       1.34703869      -1.35380020       0.00000000
Si       1.35786924       1.33362062       1.36468129       0.00000000
Si      -1.35402480      -1.34928441       1.36698835       0.00000000
Si       1.36410831      -1.36653552      -1.34918607       0.00000000
Si       0.50163426      -2.14469253       2.54803406       0.00000000
Si       2.43199926      -0.30496509       2.72078855       0.00000000
Si      -2.70832653       2.70667214       0.01105326       0.00000000
Si       0.00692325       2.70558071      -2.70973530       0.00000000
Si      -2.70679527      -0.00836524      -2.70952869       0.00000000
Si       2.72277576      -0.00875587      -2.70925322       0.00000000
