10
Lattice="16.28999089631971 0.0 0.0 0.0 16.28999089631971 0.0 0.0 0.0 34.433804113860816" Properties=species:S:1:pos:R:3:initial_magmoms:R:1 pbc="T T T"
Si      -0.60874101      -0.10611306       2.21833020       0.00000000
Si      -1.85565906       0.79540812      -1.18104571       0.00000000
Si       0.87897582      -1.91718639      -1.17192074       0.00000000
Si       1.93036500       1.83972744       0.17275449       0.00000000
Si       1.66358367       0.12860955       2.83683054       0.00000000
Si      -1.33191927      -2.37845403       1.87881270       0.00000000
Si      -0.50163426       2.14469253      -2.54803406       0.00000000
Si       2.22822765      -0.58982832      -2.54507275       0.00000000
Si       0.85623498       3.47831315      -1.18335277       0.00000000
Si       3.59285724       0.76675401      -1.15704533       0.00000000
