10
Lattice="16.28999089631971 0.0 0.0 0.0 16.28999089631971 0.0 0.0 0.0 34.433804113860816" Properties=species:S:1:pos:R:3:initial_magmoms:R:1 pbc="T T T"
Si       1.36837629       0.62894943       1.88418438       0.00000000
Si      -1.98664695      -0.22232592       1.47356104       0.00000000
Si      -0.55649898       1.77081164      -1.70478416       0.00000000
Si       1.08271485      -2.14589799      -1.02017088       0.00000000
Si      -1.59171219       0.07107327      -3.00424779       0.00000000
Si      -3.38835584       0.61717501      -0.25346737       0.00000000
Si      -1.49301108       1.65246153       2.89099494       0.00000000
Si      -2.93003995      -1.41521004      -1.69125167       0.00000000
Si       3.13533630      -0.90389952       1.71893646       0.00000000
Si       3.35503953      -1.91117538      -0.40167055       0.00000000
