10
Lattice="16.28999089631971 0.0 0.0 0.0 16.28999089631971 0.0 0.0 0.0 34.433804113860816" Properties=species:S:1:pos:R:3:initial_magmoms:R:1 pbc="T T T"
Si      -0.45669015       2.21690610       0.46430567       0.00000000
Si       0.94521096      -0.88902675      -1.99847024       0.00000000
Si      -2.19097242      -0.94141539      -0.17185921       0.00000000
Si       1.70432496      -0.47770425       1.63729387       0.00000000
Si       1.92459834      -2.82724353       1.21269039       0.00000000
Si       1.97271900      -2.92545594      -1.16148730       0.00000000
Si      -1.80721260      -3.27021750       0.01246504       0.00000000
Si      -1.60505370       3.13132360      -1.38172603       0.00000000
Si      -1.68208911       2.30490468       2.56831558       0.00000000
Si       3.73987449       0.50824800       0.71863389       0.00000000
