10
Lattice="16.28999089631971 0.0 0.0 0.0 16.28999089631971 0.0 0.0 0.0 34.433804113860816" Properties=species:S:1:pos:R:3:initial_magmoms:R:1 pbc="T T T"
Si       1.44135549      -1.28293687      -1.30239050       0.00000000
Si      -1.28070351       1.47186666      -1.29880938       0.00000000
Si       1.83006747       0.85344939       1.34460637       0.00000000
Si      -1.78220745      -1.01032698       1.33558471       0.00000000
Si      -0.47946357      -1.20002240       3.32279509       0.00000000
Si       0.77392161       0.78525945       3.48015766       0.00000000
Si       0.08228079      -2.61805454      -2.66731282       0.00000000
Si      -2.63081871       0.09596439      -2.66359397       0.00000000
Si       2.66522319       2.66506029       0.04865499       0.00000000
Si       2.83540482      -2.47857416       0.28635168       0.00000000
