10
Lattice="16.28999089631971 0.0 0.0 0.0 16.28999089631971 0.0 0.0 0.0 34.433804113860816" Properties=species:S:1:pos:R:3:initial_magmoms:R:1 pbc="T T T"
Si      -0.17690940       2.02724163       1.08473430       0.00000000
Si       1.05116112      -1.29737144       1.61353453       0.00000000
Si       1.46999331       0.20729025      -1.83521948       0.00000000
Si      -2.26048185      -0.66018483      -0.34268541       0.00000000
Si      -0.78920163      -1.11098289       3.05569192       0.00000000
Si      -1.83306483      -2.06707720      -2.21746936       0.00000000
Si       0.90486063      -3.55226975       0.59976834       0.00000000
Si      -2.69063559      -1.78224003       1.85012933       0.00000000
Si       3.09220038       1.77003882      -1.23899783       0.00000000
Si       2.98049985      -0.00011403       2.40833604       0.00000000
