10
Lattice="16.28999089631971 0.0 0.0 0.0 16.28999089631971 0.0 0.0 0.0 34.433804113860816" Properties=species:S:1:pos:R:3:initial_magmoms:R:1 pbc="T T T"
Si      -0.02702511       2.18517318       0.90674587       0.00000000
Si      -0.42010281       0.05546745      -2.34893769       0.00000000
Si       1.75790277      -1.55600451       0.55183645       0.00000000
Si      -1.98280251      -0.83917935       1.17512309       0.00000000
Si       1.15777917       1.86396696      -2.63232806       0.00000000
Si      -0.88088175      -0.86695380       3.26649579       0.00000000
Si      -0.67408020       1.47763332       3.09704694       0.00000000
Si       0.13277979      -2.21093256      -2.72102959       0.00000000
Si       0.87614136      -3.32566540      -0.77858318       0.00000000
Si       1.00813923      -2.24526047       2.70642965       0.00000000
