10
Lattice="16.28999089631971 0.0 0.0 0.0 16.28999089631971 0.0 0.0 0.0 34.433804113860816" Properties=species:S:1:pos:R:3:initial_magmoms:R:1 pbc="T T T"
Si      -1.61313354       1.59907527       0.56020387       0.00000000
Si       0.98311779       0.45209637      -2.10796980       0.00000000
Si       0.82360611      -0.06237441       2.24084992       0.00000000
Si      -0.60240420      -2.29104908      -0.36499853       0.00000000
Si      -3.19694508       1.10656341      -0.99765116       0.00000000
Si      -1.61629380      -2.66927030       1.81411155       0.00000000
Si      -1.19741274      -0.79864983       3.39746281       0.00000000
Si       1.18991934       2.79668349      -2.27741864       0.00000000
Si       2.32629345      -2.01016482       2.39390865       0.00000000
Si      -3.35275893      -1.00379957      -1.97329912       0.00000000
