10
Lattice="16.28999089631971 0.0 0.0 0.0 16.28999089631971 0.0 0.0 0.0 34.433804113860816" Properties=species:S:1:pos:R:3:initial_magmoms:R:1 pbc="T T T"
Si      -1.74254130      -0.95118939       1.18448909       0.00000000
Si      -0.72659916       1.61774361      -1.53764238       0.00000000
Si       1.16714592      -1.21280679      -1.69793183       0.00000000
Si       0.04302189      -0.61504524       2.74537430       0.00000000
Si       1.28627469       2.75512770      -0.75854269       0.00000000
Si      -0.38273355      -0.06574644      -3.19263523       0.00000000
Si       2.21454405       0.46050201       2.53360629       0.00000000
Si       3.26971251      -0.26831259      -1.25476852       0.00000000
Si      -3.50884971       0.67373811       1.62214298       0.00000000
Si       1.56511062      -3.48487083      -1.08986494       0.00000000
