10
Lattice="16.28999089631971 0.0 0.0 0.0 16.28999089631971 0.0 0.0 0.0 34.433804113860816" Properties=species:S:1:pos:R:3:initial_magmoms:R:1 pbc="T T T"
Si       1.46093607      -1.24553340       1.48766169       0.00000000
Si      -1.23662277       1.46908107       1.49341558       0.00000000
Si       1.88496477       1.06069077      -1.23358281       0.00000000
Si      -1.90241136      -1.02853431      -1.41129577       0.00000000
Si       2.87885025      -2.46325977      -0.02366292       0.00000000
Si      -2.69842221      -2.66181858       0.17554707       0.00000000
Si       0.12383658      -2.59170642       2.87338893       0.00000000
Si      -2.59343316       0.12323385       2.87187384       0.00000000
Si      -2.71425609       2.77775451       0.16415981       0.00000000
Si       1.04422158       1.69204230      -3.41575750       0.00000000
