10
Lattice="16.28999089631971 0.0 0.0 0.0 16.28999089631971 0.0 0.0 0.0 34.433804113860816" Properties=species:S:1:pos:R:3:initial_magmoms:R:1 pbc="T T T"
Si       1.35902583      -1.35913986      -1.36161668       0.00000000
Si      -1.35606105       1.35902583      -1.36567987       0.00000000
Si      -1.35540945      -1.37715660       1.35039125       0.00000000
Si       1.38600207       1.36715454       1.36815910       0.00000000
Si       0.07405434      -2.67283062       2.70677399       0.00000000
Si      -2.70558981       2.70404226      -0.00781648       0.00000000
Si      -2.68320735      -0.01174509       2.73325360       0.00000000
Si      -2.71099809      -2.71415835      -0.00395989       0.00000000
Si       2.71199178       2.71568961      -0.00712780       0.00000000
Si      -2.71199178      -0.00043983      -2.72009988       0.00000000
