10
Lattice="16.28999089631971 0.0 0.0 0.0 16.28999089631971 0.0 0.0 0.0 34.433804113860816" Properties=species:S:1:pos:R:3:initial_magmoms:R:1 pbc="T T T"
Si      -1.70515575       1.44565605       0.64174317       0.00000000
Si      -0.40294944      -1.69142328       1.57393563       0.00000000
Si       2.24852499       0.69294402       0.34413163       0.00000000
Si      -0.71907318      -0.69416577      -2.18041856       0.00000000
Si       3.44702916      -0.22893966      -1.46774172       0.00000000
Si      -3.09847203      -0.73278936      -2.00015750       0.00000000
Si      -3.71602593       0.79944804      -0.36758106       0.00000000
Si       0.02722059      -2.98559862      -2.46887070       0.00000000
Si       1.06767918      -3.52725741       1.31282395       0.00000000
Si      -0.36483084      -1.01317284       3.79223140       0.00000000
