10
Lattice="16.28999089631971 0.0 0.0 0.0 16.28999089631971 0.0 0.0 0.0 34.433804113860816" Properties=species:S:1:pos:R:3:initial_magmoms:R:1 pbc="T T T"
Si       1.35898199      -1.35334596      -1.35803556       0.00000000
Si      -1.35781275      -1.35639219       1.35710585       0.00000000
Si       1.35771463       1.35787435       1.35669264       0.00000000
Si      -1.35685164       1.35897229      -1.36085913       0.00000000
Si       2.70145066      -0.01075674      -2.72545434       0.00000000
Si      -2.71382493      -2.71491303      -0.00096415       0.00000000
Si       0.00002639      -2.71452207       2.71452160       0.00000000
Si       2.71526458       0.00169665       2.71414282       0.00000000
Si      -2.71543764       0.00094170       2.71465933       0.00000000
Si       2.71348897      -2.71672122       0.00096415       0.00000000
