10
Lattice="16.28999089631971 0.0 0.0 0.0 16.28999089631971 0.0 0.0 0.0 34.433804113860816" Properties=species:S:1:pos:R:3:initial_magmoms:R:1 pbc="T T T"
Si       1.35799956       1.35804483      -1.35610727       0.00000000
Si      -1.35742941      -1.35772263      -1.35700254       0.00000000
Si      -1.35721764       1.35701402       1.35806999       0.00000000
Si       1.35769005      -1.35894438       1.35748462       0.00000000
Si      -0.00060273      -2.71376739       2.71242113       0.00000000
Si      -0.00434943       2.71518529      -2.71252443       0.00000000
Si      -2.71430496       2.71404662      -0.00034434       0.00000000
Si       2.71518462       2.71475849       0.00110188       0.00000000
Si       0.00013032       2.71322397       2.71679423       0.00000000
Si       2.71489140      -0.00252495       2.71527914       0.00000000
