10
Lattice="16.28999089631971 0.0 0.0 0.0 16.28999089631971 0.0 0.0 0.0 34.433804113860816" Properties=species:S:1:pos:R:3:initial_magmoms:R:1 pbc="T T T"
Si       0.51634413      -1.16561466      -1.99850467       0.00000000
Si       1.81263717       1.03677283       1.17643157       0.00000000
Si      -1.68634080       1.66966377      -0.52005403       0.00000000
Si      -1.06411167      -0.86040522       2.03610641       0.00000000
Si      -2.77838982       0.67395055       1.42514708       0.00000000
Si       1.94940801      -2.67362883      -0.63929836       0.00000000
Si       0.52466832       2.94831800       1.80739695       0.00000000
Si      -0.43295562       3.65494562      -0.36269146       0.00000000
Si      -2.10966903      -2.94062193       1.48154968       0.00000000
Si       1.62852759       0.39111200      -3.55649745       0.00000000
