10
Lattice="16.28999089631971 0.0 0.0 0.0 16.28999089631971 0.0 0.0 0.0 34.433804113860816" Properties=species:S:1:pos:R:3:initial_magmoms:R:1 pbc="T T T"
Si      -0.94420098      -0.66875337      -2.04244223       0.00000000
Si       1.04555736       2.08021671       0.55455673       0.00000000
Si      -2.23208838       0.26743293       0.87069366       0.00000000
Si       1.55549952      -1.81775223       0.34657643       0.00000000
Si      -2.50968627       2.19142854      -0.49264471       0.00000000
Si      -2.28998304       1.18415268      -2.61325172       0.00000000
Si      -0.66872079       3.61457248      -0.05640260       0.00000000
Si       3.61395279      -0.65303352       0.38180223       0.00000000
Si      -2.04397146      -2.81149110      -1.76793579       0.00000000
Si       2.10966903       2.94062193      -1.48154968       0.00000000
