10
Lattice="16.28999089631971 0.0 0.0 0.0 16.28999089631971 0.0 0.0 0.0 34.433804113860816" Properties=species:S:1:pos:R:3:initial_magmoms:R:1 pbc="T T T"
Si       1.11962799       1.14049548      -1.72895670       0.00000000
Si      -2.26093797       0.62709984       0.22567928       0.00000000
Si      -0.35580618      -2.30668029       0.40005216       0.00000000
Si       1.36801791       0.60323499       1.84465435       0.00000000
Si      -0.86306049      -1.97069904       2.65718928       0.00000000
Si      -2.50823646      -0.27290637       2.51683702       0.00000000
Si      -3.30859674      -0.86434740      -1.22873655       0.00000000
Si       0.16892730       2.46704949       2.66941329       0.00000000
Si       1.26592848       3.39539379      -0.71519051       0.00000000
Si      -0.57443427       3.58178234       0.72696688       0.00000000
