10
Lattice="16.28999089631971 0.0 0.0 0.0 16.28999089631971 0.0 0.0 0.0 34.433804113860816" Properties=species:S:1:pos:R:3:initial_magmoms:R:1 pbc="T T T"
Si       2.24648874       0.22351509      -0.55569304       0.00000000
Si      -1.19909061       1.86381450       0.82475894       0.00000000
Si      -0.11787444      -1.81115478       1.52999807       0.00000000
Si      -1.36801791      -0.60323499      -1.84465435       0.00000000
Si      -2.23107840      -2.57393403       0.81253493       0.00000000
Si      -0.24838992       0.53726049      -3.57361106       0.00000000
Si      -2.91201669       0.78089373       2.05659453       0.00000000
Si      -1.72382409      -2.90991528      -1.44460219       0.00000000
Si       3.37015665      -0.34507107       1.49229304       0.00000000
Si      -1.94245218       2.97854735      -1.11768747       0.00000000
