10
Lattice="16.28999089631971 0.0 0.0 0.0 16.28999089631971 0.0 0.0 0.0 34.433804113860816" Properties=species:S:1:pos:R:3:initial_magmoms:R:1 pbc="T T T"
Si       0.96423768       1.65703509       1.38441187       0.00000000
Si       1.64517597      -1.69779267       0.14035226       0.00000000
Si      -2.03554953      -0.98595225       0.91865997       0.00000000
Si       0.24729849       0.90000621      -2.29115774       0.00000000
Si       2.50823646       0.27290637      -2.51683702       0.00000000
Si      -0.86234373       3.03030557       1.73160811       0.00000000
Si       2.15243028      -2.03377392      -2.11678486       0.00000000
Si      -1.81527615      -3.33549153       0.49405650       0.00000000
Si       2.67716376       2.73995586       0.15257627       0.00000000
Si      -3.73987449      -0.50824800      -0.71863389       0.00000000
