10
Lattice="16.28999089631971 0.0 0.0 0.0 16.28999089631971 0.0 0.0 0.0 34.433804113860816" Properties=species:S:1:pos:R:3:initial_magmoms:R:1 pbc="T T T"
Si      -1.96718040       0.72252666       1.02354540       0.00000000
Si       1.22875211       1.95598917      -0.50631494       0.00000000
Si      -0.69691878      -1.68376698      -1.54325510       0.00000000
Si       0.98409749      -1.24520760       1.83408317       0.00000000
Si      -2.30141862      -2.75176707      -0.20364163       0.00000000
Si       2.92823243      -1.98137225       0.78089025       0.00000000
Si       3.06637163       0.91007343      -1.74007883       0.00000000
Si       0.87096507       0.35088660       3.54151873       0.00000000
Si      -1.45539747       0.81726930       3.29142587       0.00000000
Si      -3.58938747      -0.84022191       0.42732375       0.00000000
