10
Lattice="16.28999089631971 0.0 0.0 0.0 16.28999089631971 0.0 0.0 0.0 34.433804113860816" Properties=species:S:1:pos:R:3:initial_magmoms:R:1 pbc="T T T"
Si       1.32180318       1.27513233      -1.46109741       0.00000000
Si      -1.90259055      -0.75238623      -1.25914304       0.00000000
Si       1.32930131      -1.36624230       1.49361185       0.00000000
Si      -1.36717083       1.37068947       1.49518892       0.00000000
Si      -0.30713166       1.71607005      -3.21126535       0.00000000
Si       2.64125313       2.68232769       0.05405422       0.00000000
Si      -2.75949342      -2.63045707       0.17279237       0.00000000
Si       2.63420770      -2.84162760       0.04332464       0.00000000
Si      -1.16872605      -1.43177697      -3.44224744       0.00000000
Si      -2.69169444       2.84081310      -0.01117378       0.00000000
