10
Lattice="16.28999089631971 0.0 0.0 0.0 16.28999089631971 0.0 0.0 0.0 34.433804113860816" Properties=species:S:1:pos:R:3:initial_magmoms:R:1 pbc="T T T"
Si      -1.81581372       0.85717980      -1.17105990       0.00000000
Si      -0.87529428       0.60033537       2.12429143       0.00000000
Si      -0.04178385      -2.37254076      -0.23273821       0.00000000
Si       2.09963995       0.91676862      -0.77031906       0.00000000
Si      -0.49847400      -1.42622208       3.17865510       0.00000000
Si      -1.12995585       0.70666020      -3.35960484       0.00000000
Si       1.99143851       3.05815428       0.16917337       0.00000000
Si       2.23459282      -2.75721282      -1.00774027       0.00000000
Si      -0.83447154      -3.29585796       1.79637813       0.00000000
Si      -0.41409180      -1.59567066      -3.54203524       0.00000000
