10
Lattice="16.28999089631971 0.0 0.0 0.0 16.28999089631971 0.0 0.0 0.0 34.433804113860816" Properties=species:S:1:pos:R:3:initial_magmoms:R:1 pbc="T T T"
Si       1.35081567       1.33555194       1.37990448       0.00000000
Si      -1.36518345      -1.37630952       1.37250121       0.00000000
Si       1.35733167      -1.31100291      -1.46753856       0.00000000
Si      -1.36914192       1.39126374      -1.44798359       0.00000000
Si      -0.46441161      -2.11739049      -2.82964562       0.00000000
Si      -2.31344064      -0.43952049      -2.72792810       0.00000000
Si       2.68422012       2.70842427       0.00523394       0.00000000
Si      -2.72681568       2.69531082       0.01127363       0.00000000
Si      -0.00513135       2.69514792       2.73659712       0.00000000
Si       2.69120574      -2.74198167       0.00046486       0.00000000
