10
Lattice="16.28999089631971 0.0 0.0 0.0 16.28999089631971 0.0 0.0 0.0 34.433804113860816" Properties=species:S:1:pos:R:3:initial_magmoms:R:1 pbc="T T T"
Si      -1.35690813       1.35725022       1.35751905       0.00000000
Si       1.35804373      -1.35738054       1.35672707       0.00000000
Si       1.35849565       1.35811359      -1.35734688       0.00000000
Si      -1.35607734      -1.35997065      -1.35800113       0.00000000
Si       0.00004887       2.71194291      -2.71479707       0.00000000
Si       2.71500447      -0.00030951       2.71434943       0.00000000
Si      -2.71464705       2.71487511      -0.00013774       0.00000000
Si      -2.71469592      -2.71511946      -0.00030990       0.00000000
Si       0.00260640      -2.71573848       2.71434943       0.00000000
Si       2.71545733       2.71484253       0.00027547       0.00000000
