10
Lattice="16.28999089631971 0.0 0.0 0.0 16.28999089631971 0.0 0.0 0.0 34.433804113860816" Properties=species:S:1:pos:R:3:initial_magmoms:R:1 pbc="T T T"
Si      -1.41609784       1.26785070      -1.50024725       0.00000000
Si       1.31861034      -1.41051852      -1.48082657       0.00000000
Si       0.75254913       2.03367618       1.17529526       0.00000000
Si      -0.79475652      -1.94579163       1.29274903       0.00000000
Si       0.10795383      -1.04783796       3.28347166       0.00000000
Si       2.65246812       2.71272483      -0.06618181       0.00000000
Si      -2.70613015      -2.65908186      -0.10984390       0.00000000
Si      -2.88183851       2.53464255      -0.17664551       0.00000000
Si      -1.13567364       3.59681571       0.98780309       0.00000000
Si      -0.05507649       2.65030155      -2.86444646       0.00000000
