10
Lattice="16.28999089631971 0.0 0.0 0.0 16.28999089631971 0.0 0.0 0.0 34.433804113860816" Properties=species:S:1:pos:R:3:initial_magmoms:R:1 pbc="T T T"
Si      -1.35703845      -1.35610992      -1.35831103       0.00000000
Si       1.36003581      -1.35689184       1.35820773       0.00000000
Si       1.35861858       1.35843939      -1.35817329       0.00000000
Si      -1.35902583       1.35913986       1.36161668       0.00000000
Si       2.70993924      -0.00120546       2.71338528       0.00000000
Si      -2.71443528      -0.01801674       2.71200793       0.00000000
Si      -2.71440270      -2.71399545      -0.00210046       0.00000000
Si      -2.71406061       0.00073305      -2.71572678       0.00000000
Si       0.00083079      -2.71393029      -2.71600225       0.00000000
Si       2.71552671       0.00118917      -2.71569235       0.00000000
