10
Lattice="16.28999089631971 0.0 0.0 0.0 16.28999089631971 0.0 0.0 0.0 34.433804113860816" Properties=species:S:1:pos:R:3:initial_magmoms:R:1 pbc="T T T"
Si       0.58080366       2.24360541      -0.39505926       0.00000000
Si       1.19850417      -0.92188368      -1.81187335       0.00000000
Si      -2.24852499      -0.69294402      -0.34413163       0.00000000
Si       0.93050109      -0.37291068       2.18737419       0.00000000
Si       2.99215927       2.10997854      -0.38490128       0.00000000
Si       3.11068531       0.44272962      -1.96444962       0.00000000
Si      -2.65147443      -2.38436730       1.22980400       0.00000000
Si      -0.92271447      -0.08167806       3.68617522       0.00000000
Si      -0.55602657       2.94736599      -2.40086390       0.00000000
Si      -3.95368074       0.75271203       0.29761154       0.00000000
