10
Lattice="16.28999089631971 0.0 0.0 0.0 16.28999089631971 0.0 0.0 0.0 34.433804113860816" Properties=species:S:1:pos:R:3:initial_magmoms:R:1 pbc="T T T"
Si       0.33202278      -2.32331238      -0.15374702       0.00000000
Si       1.91218114       1.36461330      -0.15257627       0.00000000
Si      -1.19850417       0.92188368       1.81187335       0.00000000
Si      -0.31692195       0.89119332      -2.18458506       0.00000000
Si      -0.61770051       3.16548909       1.41681410       0.00000000
Si       1.71565695       2.20147947      -2.34356602       0.00000000
Si       0.45331812      -2.65088799      -2.51026016       0.00000000
Si      -3.44702916       0.22893966       1.46774172       0.00000000
Si       1.79365510       3.03186222       1.42697207       0.00000000
Si       2.34237887      -2.85334011       0.99472429       0.00000000
