10
Lattice="16.28999089631971 0.0 0.0 0.0 16.28999089631971 0.0 0.0 0.0 34.433804113860816" Properties=species:S:1:pos:R:3:initial_magmoms:R:1 pbc="T T T"
Si      -1.69064136      -1.62443880      -0.23807545       0.00000000
Si       1.85321556      -0.29123262      -1.49880103       0.00000000
Si       0.56135340      -0.36510777       2.30665296       0.00000000
Si      -1.42501662       1.93315059      -0.41396342       0.00000000
Si       1.67506812      -2.53395837       1.63429812       0.00000000
Si      -1.26584703       2.77803144       1.76834900       0.00000000
Si      -1.55488050       0.85467114       3.12824398       0.00000000
Si       3.35178383       1.43058780      -0.69728492       0.00000000
Si      -3.69491409      -0.57534651       0.39447388       0.00000000
Si      -1.72875996      -2.30268924      -2.45637122       0.00000000
