10
Lattice="16.28999089631971 0.0 0.0 0.0 16.28999089631971 0.0 0.0 0.0 34.433804113860816" Properties=species:S:1:pos:R:3:initial_magmoms:R:1 pbc="T T T"
Si      -1.35081567      -1.33555194      -1.37990448       0.00000000
Si       1.35844678      -1.35382932       1.35745018       0.00000000
Si      -1.35594702       1.35959598       1.35669264       0.00000000
Si       1.33340445       1.37287233      -1.37467054       0.00000000
Si       2.70398754      -0.04013856      -2.66926867       0.00000000
Si      -0.00004887      -2.71194291       2.71479707       0.00000000
Si      -2.71599912      -2.71186146      -0.00740327       0.00000000
Si      -2.71469592       0.00293220       2.71465933       0.00000000
Si       2.71848402      -2.71088406      -0.00285801       0.00000000
Si       2.71540846       0.00289962       2.71507254       0.00000000
