10
Lattice="16.28999089631971 0.0 0.0 0.0 16.28999089631971 0.0 0.0 0.0 34.433804113860816" Properties=species:S:1:pos:R:3:initial_magmoms:R:1 pbc="T T T"
Si       1.56734041       1.08947520      -1.44339498       0.00000000
Si      -1.47751929      -1.11871575      -1.55737094       0.00000000
Si      -1.24579404       1.43145117       1.56371223       0.00000000
Si       1.43717175      -1.27210239       1.57753052       0.00000000
Si      -2.61619029      -2.58926292       0.12431299       0.00000000
Si       2.75929861       2.66355251       0.10878678       0.00000000
Si       2.80775484      -2.68511328       0.28293240       0.00000000
Si      -2.63440251       2.87472303       0.23825451       0.00000000
Si      -2.61182457       0.07434756       2.94686382       0.00000000
Si       0.10376730      -2.64497472       2.95220106       0.00000000
