10
Lattice="16.28999089631971 0.0 0.0 0.0 16.28999089631971 0.0 0.0 0.0 34.433804113860816" Properties=species:S:1:pos:R:3:initial_magmoms:R:1 pbc="T T T"
Si       1.64553435      -1.68182847       0.01742351       0.00000000
Si      -1.05774228      -0.50567418       2.04454270       0.00000000
Si      -1.79017326      -0.50885073      -1.45878893       0.00000000
Si       0.48128805       2.32109694      -0.55173315       0.00000000
Si      -0.61209675       1.64954169       3.00906852       0.00000000
Si      -1.69168392       3.12969996      -0.24293062       0.00000000
Si      -2.79113186       1.63675404      -1.64786505       0.00000000
Si       3.56669550      -0.62038836       0.83044052       0.00000000
Si      -3.31365804      -1.10713356       1.63116465       0.00000000
Si      -3.23580162      -2.13667785      -0.45865853       0.00000000
