10
Lattice="16.28999089631971 0.0 0.0 0.0 16.28999089631971 0.0 0.0 0.0 34.433804113860816" Properties=species:S:1:pos:R:3:initial_magmoms:R:1 pbc="T T T"
Si       1.35892809       1.35540392       1.35572849       0.00000000
Si      -1.35754996       1.35617770      -1.35745018       0.00000000
Si      -1.35717040      -1.35551501       1.35882754       0.00000000
Si       1.35671265      -1.35820286      -1.35720915       0.00000000
Si       2.70679527       0.00836524       2.70952869       0.00000000
Si       2.71371852       2.71394594      -0.00020660       0.00000000
Si      -0.00081450       2.71436948      -2.71486593       0.00000000
Si      -2.71526458      -0.00169665      -2.71414282       0.00000000
Si      -2.71539366       2.71422287       0.00058537       0.00000000
Si       2.71524978      -0.00260534      -2.71438386       0.00000000
