10
Lattice="16.28999089631971 0.0 0.0 0.0 16.28999089631971 0.0 0.0 0.0 34.433804113860816" Properties=species:S:1:pos:R:3:initial_magmoms:R:1 pbc="T T T"
Si      -1.35673546      -1.35819178       1.35741575       0.00000000
Si       1.35809730       1.35716877       1.35789782       0.00000000
Si      -1.35642269       1.35614250      -1.36392374       0.00000000
Si       1.36085031      -1.36172671      -1.36171998       0.00000000
Si       2.71453302      -0.00042354       2.71465933       0.00000000
Si       0.00081450      -2.71436948       2.71486593       0.00000000
Si      -2.71457916      -0.00014661       2.71545131       0.00000000
Si      -2.71445008      -2.71606613       0.00072311       0.00000000
Si       0.00008145       2.71502172       2.71552018       0.00000000
Si      -2.71601072       2.71639008       0.00000000       0.00000000
