10
Lattice="16.28999089631971 0.0 0.0 0.0 16.28999089631971 0.0 0.0 0.0 34.433804113860816" Properties=species:S:1:pos:R:3:initial_magmoms:R:1 pbc="T T T"
Si       0.66156948       1.43523045       1.76084243       0.00000000
Si      -0.25306515       1.92681378      -1.38854393       0.00000000
Si       1.80343332      -1.48489866      -0.61116593       0.00000000
Si      -2.72538935      -1.37735208      -0.25315747       0.00000000
Si       2.25890172      -0.22898853      -2.60326591       0.00000000
Si       2.03273136       2.14206984      -1.85608638       0.00000000
Si       0.59922765      -3.44792511       0.02134897       0.00000000
Si      -1.26652632       2.63814921       2.10452642       0.00000000
Si      -2.84668469      -1.04977647       2.10335567       0.00000000
Si      -0.83632860      -1.57980420       3.25182698       0.00000000
