10
Lattice="16.28999089631971 0.0 0.0 0.0 16.28999089631971 0.0 0.0 0.0 34.433804113860816" Properties=species:S:1:pos:R:3:initial_magmoms:R:1 pbc="T T T"
Si      -1.00756908       0.26730261       2.05886376       0.00000000
Si      -0.44564553      -2.15521587      -0.96452583       0.00000000
Si       2.20620357       1.08361080       0.32044116       0.00000000
Si      -1.99857612       1.01387331      -1.14874678       0.00000000
Si       0.82430658       1.17947745       3.16848132       0.00000000
Si       0.61209675      -1.64954169      -3.00906852       0.00000000
Si      -1.07958717       1.48015827      -3.25199915       0.00000000
Si       1.09338480       0.67155525      -3.56080167       0.00000000
Si       1.63896948       2.92478805       1.80161122       0.00000000
Si       2.84472270       1.47952296      -2.08686186       0.00000000
