10
Lattice="16.28999089631971 0.0 0.0 0.0 16.28999089631971 0.0 0.0 0.0 34.433804113860816" Properties=species:S:1:pos:R:3:initial_magmoms:R:1 pbc="T T T"
Si       1.34210222       1.35338499       1.36499119       0.00000000
Si       1.35858932      -1.35528918      -1.35745018       0.00000000
Si      -1.35834388       1.35458720      -1.35865537       0.00000000
Si      -1.36199284      -1.35437694       1.39298589       0.00000000
Si       2.64102120      -0.02524326       2.77553833       0.00000000
Si      -2.71170079       2.71234729       0.00278914       0.00000000
Si       2.71422846       2.71526320       0.00430423       0.00000000
Si       0.00036606       2.71444870      -2.71569235       0.00000000
Si      -2.71494250      -0.00052911      -2.71576121       0.00000000
Si       0.00052153      -2.71599288      -2.71589895       0.00000000
