10
Lattice="16.28999089631971 0.0 0.0 0.0 16.28999089631971 0.0 0.0 0.0 34.433804113860816" Properties=species:S:1:pos:R:3:initial_magmoms:R:1 pbc="T T T"
Si      -1.35896230       1.35715248      -1.36247752       0.00000000
Si       1.36045935      -1.35963345      -1.36485346       0.00000000
Si      -1.37212625      -1.36187821       1.36068696       0.00000000
Si       1.37428956       1.36964691       1.38120952       0.00000000
Si      -2.65045093       0.12108357       2.75219220       0.00000000
Si       2.70832653      -2.70667214      -0.01105326       0.00000000
Si       2.71314837       2.71278999      -0.00375329       0.00000000
Si      -2.71207139       2.71393029      -0.00974477       0.00000000
Si      -2.71422846      -2.71526320      -0.00430423       0.00000000
Si      -2.71386240      -0.00081450      -2.71999657       0.00000000
