10
Lattice="16.28999089631971 0.0 0.0 0.0 16.28999089631971 0.0 0.0 0.0 34.433804113860816" Properties=species:S:1:pos:R:3:initial_magmoms:R:1 pbc="T T T"
Si      -0.88669239      -1.92616218       0.98618470       0.00000000
Si       1.45819935      -0.64091376      -1.72864680       0.00000000
Si       0.96010002       1.37342083       1.68512245       0.00000000
Si      -1.83880217       1.42146444      -0.59546411       0.00000000
Si       2.45697183       1.54393429      -1.48588835       0.00000000
Si      -0.98419456       2.11319811       2.77006335       0.00000000
Si      -2.90886362       1.75895252       1.47865724       0.00000000
Si      -0.76816635      -3.59341110      -0.59336364       0.00000000
Si       2.49673572       2.83353377       0.54560393       0.00000000
Si       2.42214381      -2.79575496      -1.01073602       0.00000000
