10
Lattice="16.28999089631971 0.0 0.0 0.0 16.28999089631971 0.0 0.0 0.0 34.36671206372826" Properties=species:S:1:pos:R:3:initial_magmoms:R:1 pbc="T T T"
Si      -1.40139612       1.35120663      -1.22608125       0.00000000
Si       1.31784471       1.36616085       1.36181953       0.00000000
Si      -1.39044924      -1.35720624       1.35336531       0.00000000
Si       1.87854651      -0.76349601      -1.37322928       0.00000000
Si      -2.09930859      -0.47371320      -2.43329689       0.00000000
Si       2.66901876      -2.67201807       0.00305177       0.00000000
Si       2.68060095       0.00213399       2.71305067       0.00000000
Si       2.67797826       2.71977840      -0.01636887       0.00000000
Si       0.88630632      -1.08936117      -3.57033707       0.00000000
Si      -0.03473028      -2.71131655       2.71487211       0.00000000
