10
Lattice="16.28999089631971 0.0 0.0 0.0 16.28999089631971 0.0 0.0 0.0 34.36671206372826" Properties=species:S:1:pos:R:3:initial_magmoms:R:1 pbc="T T T"
Si      -1.35733167      -1.35767376      -1.35803575       0.00000000
Si       1.35770634       1.35824391      -1.35789829       0.00000000
Si      -1.35707103       1.35856971       1.35916985       0.00000000
Si       1.35966114      -1.35725022       1.35820759       0.00000000
Si       2.71353933       2.71344159      -0.00054987       0.00000000
Si       2.71437012       0.00014661      -2.71390640       0.00000000
Si       0.00076563      -2.71432125      -2.71459374       0.00000000
Si      -2.71428704       2.71492398      -0.00065297       0.00000000
Si      -2.71446623       0.00017919      -2.71483430       0.00000000
Si       0.00071676       2.71500543      -2.71473120       0.00000000
