10
Lattice="16.28999089631971 0.0 0.0 0.0 16.28999089631971 0.0 0.0 0.0 34.36671206372826" Properties=species:S:1:pos:R:3:initial_magmoms:R:1 pbc="T T T"
Si       0.79371396       1.93955256       0.94329804       0.00000000
Si       1.80568134      -1.24069527       0.98333528       0.00000000
Si      -0.69004440       1.38562740      -1.86776311       0.00000000
Si      -2.13271938      -0.57906063       1.21610115       0.00000000
Si       2.45079792      -1.42060203      -1.81342931       0.00000000
Si      -1.03299777       3.33498654       0.61179655       0.00000000
Si      -2.65186539       2.32057566      -0.84851460       0.00000000
Si      -1.81335393      -2.93260725       1.26771998       0.00000000
Si       0.41394519      -3.61949139       0.58358146       0.00000000
Si       1.03881330       1.59462810       3.26858544       0.00000000
