10
Lattice="16.28999089631971 0.0 0.0 0.0 16.28999089631971 0.0 0.0 0.0 34.36671206372826" Properties=species:S:1:pos:R:3:initial_magmoms:R:1 pbc="T T T"
Si      -0.05704758       0.72694125      -2.21046816       0.00000000
Si      -1.82522934      -0.83409687       1.20682214       0.00000000
Si       0.74199321      -2.19175434      -0.42738467       0.00000000
Si       0.66472974       1.87704783       1.26249624       0.00000000
Si       1.26895842       0.54001350       3.06334733       0.00000000
Si      -2.17202715      -0.51336306      -2.53296556       0.00000000
Si      -1.21220406      -2.56907472      -1.84655884       0.00000000
Si      -0.65850696      -0.89883333       3.29216102       0.00000000
Si       2.17025154       0.04005711      -2.89460667       0.00000000
Si       2.91591000      -1.84581990      -1.33229507       0.00000000
