10
Lattice="16.28999089631971 0.0 0.0 0.0 16.28999089631971 0.0 0.0 0.0 34.36671206372826" Properties=species:S:1:pos:R:3:initial_magmoms:R:1 pbc="T T T"
Si      -1.70595396       1.04720265       1.25407639       0.00000000
Si      -1.12596480      -0.97415829      -1.84040719       0.00000000
Si       0.95982309      -2.05571166       0.68640672       0.00000000
Si       2.11497957       1.24030431       0.32249741       0.00000000
Si       2.17202715       0.51336306       2.53296556       0.00000000
Si       0.64524690      -2.24287236      -2.87470834       0.00000000
Si      -0.91728990      -3.44299087       1.14362172       0.00000000
Si       0.34679781      -0.32073381       3.73978770       0.00000000
Si      -1.81590983       3.40592949       0.62447787       0.00000000
Si      -3.79520252      -0.19104912       1.02986784       0.00000000
