10
Lattice="16.28999089631971 0.0 0.0 0.0 16.28999089631971 0.0 0.0 0.0 34.36671206372826" Properties=species:S:1:pos:R:3:initial_magmoms:R:1 pbc="T T T"
Si       1.35508365      -1.35379674      -1.35848252       0.00000000
Si      -1.35713619      -1.35661491       1.35549261       0.00000000
Si       1.35702216       1.35853713       1.35528641       0.00000000
Si      -1.35746199       1.36112724      -1.36075072       0.00000000
Si      -0.00014661      -2.71337643       2.71232553       0.00000000
Si      -2.71445157       0.00091224       2.71273793       0.00000000
Si       2.71298547      -2.71492398      -0.00281807       0.00000000
Si       2.71490769       0.00045612       2.71328780       0.00000000
Si      -2.71547784      -2.71322982      -0.00178707       0.00000000
Si      -0.00004887       2.71578735       2.71311597       0.00000000
