10
Lattice="16.28999089631971 0.0 0.0 0.0 16.28999089631971 0.0 0.0 0.0 34.36671206372826" Properties=species:S:1:pos:R:3:initial_magmoms:R:1 pbc="T T T"
Si      -0.47565008      -1.25427787       1.89432859       0.00000000
Si       1.98435332      -0.48554626      -1.11640327       0.00000000
Si      -0.19747227       2.22746691       0.66709262       0.00000000
Si      -1.59630990       0.19349751      -1.69888499       0.00000000
Si       2.93189375       1.73107803      -0.70273092       0.00000000
Si      -3.43991436       1.13979990      -0.52952260       0.00000000
Si       1.18073504       3.36882576      -0.83133123       0.00000000
Si      -2.45464629      -0.26862862       2.84068527       0.00000000
Si      -2.44301523       2.88589242       0.61437405       0.00000000
Si       1.66780604      -1.39117903      -3.29889690       0.00000000
