10
Lattice="16.28999089631971 0.0 0.0 0.0 16.28999089631971 0.0 0.0 0.0 34.36671206372826" Properties=species:S:1:pos:R:3:initial_magmoms:R:1 pbc="T T T"
Si      -1.34074845      -1.34022717       1.37188555       0.00000000
Si       1.37052657       1.37560905       1.36745224       0.00000000
Si       1.27573506      -1.49141466      -1.35893272       0.00000000
Si      -1.33372746       1.45823193      -1.36996101       0.00000000
Si       2.14615863       0.42722154      -2.54861686       0.00000000
Si       0.31418523       2.06483895      -2.94232286       0.00000000
Si      -2.70045846      -2.71155195      -0.02718752       0.00000000
Si      -2.69913897       0.01239669       2.73088357       0.00000000
Si       0.01671354      -2.70135441       2.73263627       0.00000000
Si       2.73766482      -2.70322776       0.01695311       0.00000000
