10
Lattice="16.28999089631971 0.0 0.0 0.0 16.28999089631971 0.0 0.0 0.0 34.36671206372826" Properties=species:S:1:pos:R:3:initial_magmoms:R:1 pbc="T T T"
Si      -1.35703845       1.35716926       1.35820759       0.00000000
Si       1.35741312       1.35811182      -1.35700475       0.00000000
Si       1.35751086      -1.35754344       1.35848252       0.00000000
Si      -1.35829278      -1.35957969      -1.35638615       0.00000000
Si       0.00009774      -2.71220355      -2.71538417       0.00000000
Si      -2.71185169      -0.00304623      -2.71696504       0.00000000
Si      -2.71462750       2.71444084       0.00024057       0.00000000
Si      -0.00063531       2.71413621       2.71514360       0.00000000
Si       2.71458189      -2.71479366       0.00065297       0.00000000
Si       2.71440270       0.00104256       2.71517797       0.00000000
