10
Lattice="16.28999089631971 0.0 0.0 0.0 16.28999089631971 0.0 0.0 0.0 34.36671206372826" Properties=species:S:1:pos:R:3:initial_magmoms:R:1 pbc="T T T"
Si       0.47565008       1.25427787      -1.89432859       0.00000000
Si      -0.66625027      -2.25191887      -0.37366947       0.00000000
Si      -1.97899621       0.98564926       0.94635668       0.00000000
Si       1.93654054      -0.25360109       1.46271682       0.00000000
Si      -0.96600256      -2.48079337       1.91642640       0.00000000
Si      -2.41279891      -0.68829064       2.64094583       0.00000000
Si       1.18399955      -2.17802743       2.74535196       0.00000000
Si       0.27817781       3.48174478      -1.22723597       0.00000000
Si      -3.53993659       0.78284690      -0.79717070       0.00000000
Si       2.46000340       0.76873162      -3.01073186       0.00000000
