10
Lattice="16.28999089631971 0.0 0.0 0.0 16.28999089631971 0.0 0.0 0.0 34.36671206372826" Properties=species:S:1:pos:R:3:initial_magmoms:R:1 pbc="T T T"
Si      -0.44786097       1.97125683      -1.23881756       0.00000000
Si       1.65918537       0.23526018       1.74696405       0.00000000
Si      -2.34716094      -0.36028593       0.51756297       0.00000000
Si       1.47717720      -1.55404971      -1.28796199       0.00000000
Si       1.86794172       1.99001639      -1.68108303       0.00000000
Si       1.13293692       0.05072706      -3.07475708       0.00000000
Si       3.00223071       1.62907674       0.34596988       0.00000000
Si      -1.52857215       3.13298632       0.62839568       0.00000000
Si       0.40694049      -3.59339481      -0.39143707       0.00000000
Si       0.45932913       1.49696955       3.35017206       0.00000000
