10
Lattice="16.28999089631971 0.0 0.0 0.0 16.28999089631971 0.0 0.0 0.0 34.36671206372826" Properties=species:S:1:pos:R:3:initial_magmoms:R:1 pbc="T T T"
Si      -1.58009742       0.45240588      -1.72452258       0.00000000
Si      -1.28796885      -1.40515911       1.48289009       0.00000000
Si       1.86344568      -0.69719571      -1.40759258       0.00000000
Si       0.56819520       1.99131308       1.30301462       0.00000000
Si       1.08515835      -1.75506831       2.23682744       0.00000000
Si       2.20196817       0.46517724       2.19156645       0.00000000
Si       1.47214359      -3.01767363      -1.27476516       0.00000000
Si      -0.30866292       1.89783454      -3.13727016       0.00000000
Si       2.08279053       3.07137266      -0.40800183       0.00000000
Si      -1.80529038      -1.73327229      -2.77896262       0.00000000
