10
Lattice="16.28999089631971 0.0 0.0 0.0 16.28999089631971 0.0 0.0 0.0 34.36671206372826" Properties=species:S:1:pos:R:3:initial_magmoms:R:1 pbc="T T T"
Si       1.35995436      -1.35225936      -1.36023522       0.00000000
Si      -1.35837423       1.36184102      -1.36044142       0.00000000
Si      -1.34374581      -1.35431190       1.38601027       0.00000000
Si       1.35676152       1.35433459       1.37501292       0.00000000
Si      -2.61687447       0.17666207       2.69225536       0.00000000
Si       2.71241532      -2.71042182      -0.00422711       0.00000000
Si      -2.71524978      -2.71161099       0.00498318       0.00000000
Si      -0.00004887      -2.71107342      -2.71689631       0.00000000
Si       2.71477737       0.00355157      -2.71734307       0.00000000
Si      -2.71520091       0.00393022      -2.71748054       0.00000000
