10
Lattice="16.28999089631971 0.0 0.0 0.0 16.28999089631971 0.0 0.0 0.0 34.36671206372826" Properties=species:S:1:pos:R:3:initial_magmoms:R:1 pbc="T T T"
Si      -1.46834802       1.18750027      -1.34745080       0.00000000
Si       1.27312866      -1.53097397      -1.30624509       0.00000000
Si      -1.18156257      -1.69740890       1.28968032       0.00000000
Si       0.89018334       1.84059081       1.42683795       0.00000000
Si      -0.44655777       0.24188044       2.68335438       0.00000000
Si      -2.68262091       2.52516177       0.14598987       0.00000000
Si      -0.09767484       2.54329254      -2.69472977       0.00000000
Si       2.70034443       2.56686417       0.09272144       0.00000000
Si       2.61687447      -0.17666207      -2.69225536       0.00000000
Si      -0.82363869       3.43907964       1.45996748       0.00000000
