10
Lattice="16.28999089631971 0.0 0.0 0.0 16.28999089631971 0.0 0.0 0.0 34.36671206372826" Properties=species:S:1:pos:R:3:initial_magmoms:R:1 pbc="T T T"
Si       1.69152102      -0.26013501       1.60884416       0.00000000
Si      -2.19950838      -0.27662049       0.90264220       0.00000000
Si       0.72259182      -1.95085130      -1.23740853       0.00000000
Si       0.48316140       1.90099413      -1.48206529       0.00000000
Si       2.09435643      -0.65433672      -2.85934641       0.00000000
Si      -3.48552243      -0.68057991      -1.10348137       0.00000000
Si       2.69294877       2.44208277      -0.81095176       0.00000000
Si       3.53512548      -1.20643740       0.43948176       0.00000000
Si      -0.95355144      -3.56212520      -1.20850611       0.00000000
Si      -2.26272987      -2.16639407       2.31002858       0.00000000
