10
Lattice="16.28999089631971 0.0 0.0 0.0 16.28999089631971 0.0 0.0 0.0 34.36671206372826" Properties=species:S:1:pos:R:3:initial_magmoms:R:1 pbc="T T T"
Si       0.25159905       2.10189870       0.99952201       0.00000000
Si      -1.64789640       0.68033556      -1.52272113       0.00000000
Si       2.06992143      -0.16658154      -1.16709419       0.00000000
Si      -1.51459533      -1.08005958       1.71101645       0.00000000
Si       0.71203590       3.15362997      -1.11485676       0.00000000
Si       3.18638916      -1.66888606       0.24623763       0.00000000
Si      -3.05277858       1.91967876      -0.03165176       0.00000000
Si      -0.40624002       2.10929436      -2.93258191       0.00000000
Si       0.11917764      -2.60619542       2.59956829       0.00000000
Si      -2.08279053      -3.07137266       0.40800183       0.00000000
