10
Lattice="16.28999089631971 0.0 0.0 0.0 16.28999089631971 0.0 0.0 0.0 34.36671206372826" Properties=species:S:1:pos:R:3:initial_magmoms:R:1 pbc="T T T"
Si       1.35624024       1.35702216       1.35782955       0.00000000
Si      -1.35858600       1.35769005      -1.35624868       0.00000000
Si       1.35835794      -1.35764118      -1.35676418       0.00000000
Si      -1.35770634      -1.35822762       1.35800139       0.00000000
Si      -2.71557558      -0.00188964      -2.71321907       0.00000000
Si       0.00087966      -2.71366965       2.71521234       0.00000000
Si      -2.71329498       0.00029322       2.71586531       0.00000000
Si       2.71466334      -0.00180819      -2.71486867       0.00000000
Si      -2.71422351      -2.71534752       0.00034367       0.00000000
Si      -0.00211770       2.71423980      -2.71538417       0.00000000
