10
Lattice="16.28999089631971 0.0 0.0 0.0 16.28999089631971 0.0 0.0 0.0 34.36671206372826" Properties=species:S:1:pos:R:3:initial_magmoms:R:1 pbc="T T T"
Si       0.97352298      -0.93838056       1.99110531       0.00000000
Si      -1.97748545       1.02333780       0.93202575       0.00000000
Si       0.83416203       1.72691919      -1.48282135       0.00000000
Si      -0.37822122      -1.97991918      -1.34906604       0.00000000
Si      -1.32552545       2.60270217      -1.98839034       0.00000000
Si      -0.83984724       2.76534153       2.06533745       0.00000000
Si      -1.03975812      -1.53884951       3.02891186       0.00000000
Si       2.55189366      -2.56110470       1.23988293       0.00000000
Si       1.44513477       3.23843571       1.62262522       0.00000000
Si       1.65180600      -2.42721719      -2.61871056       0.00000000
