10
Lattice="16.28999089631971 0.0 0.0 0.0 16.28999089631971 0.0 0.0 0.0 34.36671206372826" Properties=species:S:1:pos:R:3:initial_magmoms:R:1 pbc="T T T"
Si      -1.35624024      -1.35702216      -1.35782955       0.00000000
Si      -1.35488817       1.36026387       1.35593938       0.00000000
Si       1.35819504       1.35853713      -1.35810449       0.00000000
Si       1.35793440      -1.36063854       1.35776082       0.00000000
Si      -0.01247814       2.69992089       2.72583166       0.00000000
Si      -2.71482624       0.00066789      -2.71407824       0.00000000
Si      -2.71394658      -2.71524978       0.00017183       0.00000000
Si       0.00211770      -2.71466334      -2.71459374       0.00000000
Si       2.71427238      -2.71500543      -0.00106537       0.00000000
Si      -2.71565703       2.71396287      -0.00072170       0.00000000
