10
Lattice="16.28999089631971 0.0 0.0 0.0 16.28999089631971 0.0 0.0 0.0 34.36671206372826" Properties=species:S:1:pos:R:3:initial_magmoms:R:1 pbc="T T T"
Si       0.09057240       1.14891741       2.03347949       0.00000000
Si      -1.72493181       0.61064694      -1.48254642       0.00000000
Si      -0.67504131      -2.18036763       0.63035458       0.00000000
Si       1.77204249       1.13339304      -1.16300455       0.00000000
Si       0.73062279       3.26842560      -1.05055661       0.00000000
Si       0.55052055       3.34531440       1.34813813       0.00000000
Si      -3.60440685      -0.44965287      -0.48948535       0.00000000
Si      -3.00017817      -1.78668720       1.31136573       0.00000000
Si      -1.47401694       2.92747590      -1.96158429       0.00000000
Si      -2.05335450       1.27845549       3.00066241       0.00000000
