10
Lattice="16.28999089631971 0.0 0.0 0.0 16.28999089631971 0.0 0.0 0.0 34.36671206372826" Properties=species:S:1:pos:R:3:initial_magmoms:R:1 pbc="T T T"
Si       1.74097746       1.16418114       0.99374840       0.00000000
Si      -0.42049377      -2.20297815       0.63437549       0.00000000
Si      -1.85075577       1.29904605      -0.63966797       0.00000000
Si       1.27296576      -1.37067318      -1.48749523       0.00000000
Si       2.09750040       0.49065480      -2.68376678       0.00000000
Si      -2.27023956      -2.56894929      -0.83607384       0.00000000
Si      -1.78795782       0.84543471      -2.95581382       0.00000000
Si      -1.03969296       3.43370394       0.42721284       0.00000000
Si      -0.48159756      -2.06184159       2.96107193       0.00000000
Si       2.98773261       1.89219753      -0.99041483       0.00000000
