10
Lattice="16.28999089631971 0.0 0.0 0.0 16.28999089631971 0.0 0.0 0.0 34.36671206372826" Properties=species:S:1:pos:R:3:initial_magmoms:R:1 pbc="T T T"
Si      -1.35646830      -1.35654975       1.35913549       0.00000000
Si      -1.35790182       1.36112724      -1.35566445       0.00000000
Si       1.35943308       1.35817875       1.35793265       0.00000000
Si       1.36383138      -1.35610992      -1.35930732       0.00000000
Si       0.00796581       2.71305063      -2.71286509       0.00000000
Si      -2.71298547       2.71492398       0.00281807       0.00000000
Si      -2.71313208       0.00154755       2.71514360       0.00000000
Si      -2.71345788      -2.71612944       0.00216510       0.00000000
Si       0.00211770      -2.71423980       2.71538417       0.00000000
Si       0.00192222       2.71538010       2.71610587       0.00000000
