10
Lattice="16.28999089631971 0.0 0.0 0.0 16.28999089631971 0.0 0.0 0.0 34.36671206372826" Properties=species:S:1:pos:R:3:initial_magmoms:R:1 pbc="T T T"
Si      -0.87449607      -0.11921348      -2.16287023       0.00000000
Si      -1.98208086       0.48250654       1.18386516       0.00000000
Si       1.14039774      -2.04323419       0.50580955       0.00000000
Si       0.91129518       2.39998452       0.24084205       0.00000000
Si       0.83575845       1.62402666       2.44682505       0.00000000
Si       2.28561732       1.69915614      -1.49213474       0.00000000
Si       1.13878503       0.48125547      -3.20067678       0.00000000
Si      -2.50305412      -1.75439620       1.60008064       0.00000000
Si      -2.75645438       2.27021838      -0.33184516       0.00000000
Si      -0.36158913      -2.77944445       2.25117628       0.00000000
