10
Lattice="16.28999089631971 0.0 0.0 0.0 16.28999089631971 0.0 0.0 0.0 34.36671206372826" Properties=species:S:1:pos:R:3:initial_magmoms:R:1 pbc="T T T"
Si       1.79802504      -0.91243548       1.23098195       0.00000000
Si      -2.08743318      -0.55765557       0.95893490       0.00000000
Si      -0.19943847       2.36555235       0.01742393       0.00000000
Si       0.19064187      -1.17688734      -2.06128217       0.00000000
Si      -3.63488544       0.70812630      -0.30091510       0.00000000
Si      -2.10927807      -2.92030830       0.96429611       0.00000000
Si      -2.49847875       2.75341725      -0.49708040       0.00000000
Si      -1.75837518      -0.56304756      -3.30745422       0.00000000
Si       1.98031014      -0.11502369      -3.24136699       0.00000000
Si       0.97349040      -2.77376346       2.42725350       0.00000000
