10
Lattice="16.28999089631971 0.0 0.0 0.0 16.28999089631971 0.0 0.0 0.0 34.36671206372826" Properties=species:S:1:pos:R:3:initial_magmoms:R:1 pbc="T T T"
Si      -1.16212860      -1.36866951       1.44216005       0.00000000
Si       1.50392538       1.23375573       1.45749449       0.00000000
Si      -0.03339450      -0.52856163      -2.37731864       0.00000000
Si       2.48826492      -0.49436892      -2.52461445       0.00000000
Si      -2.90499570      -2.19931290      -0.06653399       0.00000000
Si      -2.27414916       0.13248657       2.87693328       0.00000000
Si      -1.00683603       1.41916851      -3.37618768       0.00000000
Si       0.42121053      -2.58664023       2.85026813       0.00000000
Si       3.00183975       2.47586823       0.23956709       0.00000000
Si       0.42608124       2.84231178       2.86394265       0.00000000
