10
Lattice="16.28999089631971 0.0 0.0 0.0 16.28999089631971 0.0 0.0 0.0 34.36671206372826" Properties=species:S:1:pos:R:3:initial_magmoms:R:1 pbc="T T T"
Si      -1.35029439      -1.34674317       1.36840420       0.00000000
Si       1.36715454       1.36632375       1.36355849       0.00000000
Si      -1.41683904       1.39579236      -1.32000553       0.00000000
Si       1.07784414      -1.60855605      -1.40644817       0.00000000
Si       2.57575851      -0.36644355      -2.62437557       0.00000000
Si      -2.70023040      -2.70982521       0.01299062       0.00000000
Si      -2.70536175       0.00663003       2.72685235       0.00000000
Si       0.00866628      -2.70682785       2.72582135       0.00000000
Si       2.72342736      -2.71912680      -0.01213146       0.00000000
Si       2.72541474       0.00775404       2.72678362       0.00000000
