10
Lattice="16.28999089631971 0.0 0.0 0.0 16.28999089631971 0.0 0.0 0.0 34.36671206372826" Properties=species:S:1:pos:R:3:initial_magmoms:R:1 pbc="T T T"
Si       1.67123997       0.32715207       1.60166151       0.00000000
Si      -1.04720265       2.09473110      -0.38741616       0.00000000
Si      -1.46440584      -1.64864574       0.91412069       0.00000000
Si       0.94006332       0.05426199      -2.21039942       0.00000000
Si      -0.22763646      -3.47428233       0.13097161       0.00000000
Si       2.29166091       2.51768466       1.24397257       0.00000000
Si      -1.22921082       0.30542121      -3.42234220       0.00000000
Si       3.36510675      -1.16760204       0.87542375       0.00000000
Si      -2.29944753      -1.73392389      -2.52581728       0.00000000
Si       1.41392313      -2.05781796      -2.91069030       0.00000000
