10
Lattice="16.28999089631971 0.0 0.0 0.0 16.28999089631971 0.0 0.0 0.0 34.36671206372826" Properties=species:S:1:pos:R:3:initial_magmoms:R:1 pbc="T T T"
Si      -0.72063702       1.75829373       1.39511746       0.00000000
Si      -2.20569858      -1.02161106       0.28146353       0.00000000
Si       1.46015415      -1.40032098       1.49629311       0.00000000
Si       0.88964577       0.43622991      -2.32233187       0.00000000
Si      -1.73183877      -3.13369101      -0.41882735       0.00000000
Si       0.95550624       3.36956762       1.36621503       0.00000000
Si      -2.84991921       2.41267461       0.70345262       0.00000000
Si      -0.87649974      -0.41256054      -3.71889272       0.00000000
Si       2.90343186      -1.16362728      -2.30514850       0.00000000
Si       3.51168417      -0.15773607       1.75469657       0.00000000
