10
Lattice="16.28999089631971 0.0 0.0 0.0 16.28999089631971 0.0 0.0 0.0 34.36671206372826" Properties=species:S:1:pos:R:3:initial_magmoms:R:1 pbc="T T T"
Si      -0.86824071      -2.03870979       0.64698808       0.00000000
Si       0.49306572      -0.13510926      -2.29817205       0.00000000
Si      -1.81781739       1.42094412       0.65386143       0.00000000
Si       2.19651102       0.27259686       0.95893490       0.00000000
Si       1.11348666       2.05542333      -2.65586099       0.00000000
Si       0.61872678      -3.51870516      -0.45913953       0.00000000
Si      -2.91550275      -2.30839074      -0.65128392       0.00000000
Si      -0.58132494      -2.39863734       3.03657564       0.00000000
Si      -1.33892397       2.57701284       2.64520731       0.00000000
Si       2.96401437      -1.72310733       1.92604909       0.00000000
