10
Lattice="16.28999089631971 0.0 0.0 0.0 16.28999089631971 0.0 0.0 0.0 34.36671206372826" Properties=species:S:1:pos:R:3:initial_magmoms:R:1 pbc="T T T"
Si       1.35788553      -1.35659692       1.35724532       0.00000000
Si      -1.36057338      -1.35525472      -1.35593938       0.00000000
Si      -1.35731538       1.35876356       1.35683292       0.00000000
Si       1.35601218       1.35889388      -1.35923859       0.00000000
Si      -2.70922248      -0.00392915      -2.71057283       0.00000000
Si       0.00306252      -2.71240785       2.71435317       0.00000000
Si      -2.71404432      -2.71379250      -0.00027493       0.00000000
Si       2.71546155       0.00065323       2.71297850       0.00000000
Si      -0.00180819       2.71549250       2.71366583       0.00000000
Si      -2.71526607       0.00169253       2.71414697       0.00000000
