10
Lattice="16.28999089631971 0.0 0.0 0.0 16.28999089631971 0.0 0.0 0.0 34.36671206372826" Properties=species:S:1:pos:R:3:initial_magmoms:R:1 pbc="T T T"
Si       1.35809730      -1.35664749      -1.35655798       0.00000000
Si      -1.35713456       1.35785295      -1.35679855       0.00000000
Si       1.35733167       1.35767376       1.35803575       0.00000000
Si      -1.35871143      -1.35684297       1.35755462       0.00000000
Si      -2.71442941       0.00162900       2.71115706       0.00000000
Si       2.71471221      -0.00175932      -2.71284103       0.00000000
Si       0.00057015      -2.71339272      -2.71479994       0.00000000
Si      -2.71521958      -0.00009774      -2.71352837       0.00000000
Si      -2.71434179      -2.71467963       0.00034367       0.00000000
Si      -2.71466753       2.71516833       0.00027493       0.00000000
