10
Lattice="16.28999089631971 0.0 0.0 0.0 16.28999089631971 0.0 0.0 0.0 34.36671206372826" Properties=species:S:1:pos:R:3:initial_magmoms:R:1 pbc="T T T"
Si       1.78948908       0.78552009       1.34629062       0.00000000
Si      -0.77401935      -1.88569456       1.22630261       0.00000000
Si       0.89777448       0.76387068      -2.18349027       0.00000000
Si      -2.09859183       1.42781850       0.02464095       0.00000000
Si      -2.03748804       1.28668194      -2.30205549       0.00000000
Si       0.51122907       2.15559054       2.74804429       0.00000000
Si      -2.18619945      -0.57329397       2.73497119       0.00000000
Si      -0.96102855       3.36603528       1.31214727       0.00000000
Si       2.66763411       2.64437199       0.21851884       0.00000000
Si       3.01465998      -0.38846763      -2.46849357       0.00000000
