10
Lattice="16.28999089631971 0.0 0.0 0.0 16.28999089631971 0.0 0.0 0.0 34.36671206372826" Properties=species:S:1:pos:R:3:initial_magmoms:R:1 pbc="T T T"
Si       1.33732333       1.35534429       1.36406024       0.00000000
Si      -1.23426072       1.36870209      -1.46914340       0.00000000
Si      -1.37974671      -1.35829278       1.36127654       0.00000000
Si       1.31554523      -1.45516941      -1.42553889       0.00000000
Si      -0.59497596      -2.22865119      -2.51718092       0.00000000
Si      -2.37687390      -0.48241206      -2.43602457       0.00000000
Si       2.66858612      -2.72425815       0.02167853       0.00000000
Si       2.69181566       2.70306486      -0.03480663       0.00000000
Si       2.69350982       0.00003258       2.72323010       0.00000000
Si      -0.02245374       2.71191033       2.72295516       0.00000000
