10
Lattice="16.28999089631971 0.0 0.0 0.0 16.28999089631971 0.0 0.0 0.0 34.36671206372826" Properties=species:S:1:pos:R:3:initial_magmoms:R:1 pbc="T T T"
Si      -1.34315937      -1.35314514       1.35384645       0.00000000
Si       1.27826001      -1.37007045      -1.40175367       0.00000000
Si       1.37163429       1.35913986       1.34893201       0.00000000
Si      -1.47225762       1.21044474      -1.43589702       0.00000000
Si       0.37450710       2.23502058      -2.44836910       0.00000000
Si       2.15640504       0.48878145      -2.52952545       0.00000000
Si      -0.51122907      -2.15559054      -2.74804429       0.00000000
Si      -2.69985573      -0.00027693       2.71037006       0.00000000
Si       0.01381392      -2.71305063       2.70909850       0.00000000
Si      -2.71331127       2.70969489      -0.02967567       0.00000000
