10
Lattice="16.28999089631971 0.0 0.0 0.0 16.28999089631971 0.0 0.0 0.0 34.36671206372826" Properties=species:S:1:pos:R:3:initial_magmoms:R:1 pbc="T T T"
Si      -1.36521603      -1.35122292      -1.38408574       0.00000000
Si       1.35032697       1.36378251      -1.38669761       0.00000000
Si      -1.56970440       1.25175618       1.31318717       0.00000000
Si       1.47955554      -1.36831113       1.45336907       0.00000000
Si       2.69382843      -2.70597263      -0.04007161       0.00000000
Si       2.70444951       2.70733284      -0.01481206       0.00000000
Si      -2.71479366      -2.71719969      -0.02206344       0.00000000
Si       0.00452862      -2.69578323       2.73909722       0.00000000
Si       2.70591561       0.00526167      -2.74456153       0.00000000
Si      -0.00967626      -2.70987082      -2.74535196       0.00000000
