10
Lattice="16.28999089631971 0.0 0.0 0.0 16.28999089631971 0.0 0.0 0.0 34.36671206372826" Properties=species:S:1:pos:R:3:initial_magmoms:R:1 pbc="T T T"
Si      -1.35697329       1.35697329      -1.35676418       0.00000000
Si       1.35721764      -1.35661491      -1.35727968       0.00000000
Si       1.35760860       1.35627282       1.35807012       0.00000000
Si      -1.35936792      -1.35788553       1.35683292       0.00000000
Si       2.71539315       0.00159642       2.71084776       0.00000000
Si      -0.00140094       2.71301805      -2.71400950       0.00000000
Si       0.00278559      -2.71197549       2.71576221       0.00000000
Si       2.71460299      -0.00013032      -2.71383767       0.00000000
Si      -2.71487511      -2.71461447       0.00000000       0.00000000
Si      -2.71521720      -0.00171045      -2.71479994       0.00000000
