10
Lattice="16.28999089631971 0.0 0.0 0.0 16.28999089631971 0.0 0.0 0.0 34.36671206372826" Properties=species:S:1:pos:R:3:initial_magmoms:R:1 pbc="T T T"
Si       2.30426190      -0.13393638       0.51759734       0.00000000
Si      -0.90341082      -1.74966003       1.38631957       0.00000000
Si      -0.08337222       2.25950445       1.03278901       0.00000000
Si      -0.26999046      -1.09221192      -2.63475982       0.00000000
Si      -0.16822683      -0.96088194       3.49454670       0.00000000
Si       2.41421777      -2.49266322       1.14719586       0.00000000
Si      -2.03538663       3.20536701       0.25496678       0.00000000
Si       0.32496921      -3.73091499       0.92298730       0.00000000
Si       2.93259815       1.71046629       1.95285514       0.00000000
Si      -3.11319819      -2.29074867       0.71520604       0.00000000
