10
Lattice="16.28999089631971 0.0 0.0 0.0 16.28999089631971 0.0 0.0 0.0 34.36671206372826" Properties=species:S:1:pos:R:3:initial_magmoms:R:1 pbc="T T T"
Si      -1.59164703       1.63835046       0.43827892       0.00000000
Si      -0.73518399      -0.78877809      -2.10822713       0.00000000
Si      -0.73971261      -1.74490335       1.45546544       0.00000000
Si       2.88403766      -1.26197001       0.00976015       0.00000000
Si       1.50583035      -2.40332886       1.50818400       0.00000000
Si       3.27325463       0.89034624       1.06385653       0.00000000
Si      -0.18160092       3.56127093      -0.10285963       0.00000000
Si       2.06803735       2.90497941       0.60220823       0.00000000
Si       0.16822683       0.96088194      -3.49454670       0.00000000
Si      -1.73117088       1.85802111       2.78308663       0.00000000
