10
Lattice="16.28999089631971 0.0 0.0 0.0 16.28999089631971 0.0 0.0 0.0 34.36671206372826" Properties=species:S:1:pos:R:3:initial_magmoms:R:1 pbc="T T T"
Si       0.73518399       0.78877809       2.10822713       0.00000000
Si      -2.20978737      -0.54108864      -0.67111353       0.00000000
Si       1.22838003      -1.98125496      -0.46333227       0.00000000
Si       0.90341082       1.74966003      -1.38631957       0.00000000
Si       3.31762859      -0.74300319      -0.23912372       0.00000000
Si      -1.59255927      -1.12958118      -2.83594266       0.00000000
Si      -0.85646304       2.42712855       2.54650605       0.00000000
Si      -3.01198842       1.88934678      -0.78022790       0.00000000
Si      -0.00452862      -0.95612526       3.56369257       0.00000000
Si       3.20767272       1.61572365      -0.86872223       0.00000000
