10
Lattice="16.28999089631971 0.0 0.0 0.0 16.28999089631971 0.0 0.0 0.0 34.36671206372826" Properties=species:S:1:pos:R:3:initial_magmoms:R:1 pbc="T T T"
Si      -1.35557235      -1.35604476       1.35724532       0.00000000
Si      -1.35071793       1.35858600      -1.36109439       0.00000000
Si       1.35767376      -1.35531171      -1.36222849       0.00000000
Si       1.35900954       1.35987291       1.35666108       0.00000000
Si      -0.01396053      -2.71445157      -2.71116050       0.00000000
Si       0.00140094      -2.71301805       2.71400950       0.00000000
Si      -2.71404432       0.00263898       2.71380330       0.00000000
Si      -2.71381626      -2.71472850      -0.00079043       0.00000000
Si       2.71600393      -2.71314837       0.00017183       0.00000000
Si       2.71496673       2.71489140      -0.00054987       0.00000000
