10
Lattice="16.28999089631971 0.0 0.0 0.0 16.28999089631971 0.0 0.0 0.0 34.36671206372826" Properties=species:S:1:pos:R:3:initial_magmoms:R:1 pbc="T T T"
Si       0.70622037       2.17719108      -0.45838346       0.00000000
Si      -2.22005007      -0.34494075      -0.69338317       0.00000000
Si      -0.08785197       0.19311795       2.34329557       0.00000000
Si       1.59898960      -1.65004668      -0.66630219       0.00000000
Si       3.08991068      -1.40532201       1.26954142       0.00000000
Si      -2.26701414      -0.57348945       2.82563264       0.00000000
Si       1.00597266       2.40606558      -2.74847933       0.00000000
Si      -2.98755342       1.65076344      -1.66049735       0.00000000
Si       2.85622248       2.47995702       0.37054210       0.00000000
Si      -2.29094415      -1.77591951      -2.47667286       0.00000000
