10
Lattice="16.28999089631971 0.0 0.0 0.0 16.28999089631971 0.0 0.0 0.0 34.36671206372826" Properties=species:S:1:pos:R:3:initial_magmoms:R:1 pbc="T T T"
Si      -1.49791437      -1.24211250       1.21792740       0.00000000
Si       1.36800162       1.55975121       1.15606385       0.00000000
Si       1.14507297      -1.48688604      -1.54371580       0.00000000
Si      -0.83898387       0.94798026      -2.09702018       0.00000000
Si       1.58622246       0.75644244      -2.30033376       0.00000000
Si       0.14766885      -2.35268325       2.61224411       0.00000000
Si       2.88951321       1.94911479      -0.64423535       0.00000000
Si      -2.57575851       0.36644355       2.62437557       0.00000000
Si       2.85065226       0.36127962       2.61464635       0.00000000
Si      -3.00183975      -2.47586823      -0.23956709       0.00000000
