10
Lattice="16.28999089631971 0.0 0.0 0.0 16.28999089631971 0.0 0.0 0.0 34.36671206372826" Properties=species:S:1:pos:R:3:initial_magmoms:R:1 pbc="T T T"
Si      -0.22563279      -0.32744529       2.28232899       0.00000000
Si       2.23799092       0.38908665      -0.59567855       0.00000000
Si      -0.32886252      -2.15192529      -0.94711275       0.00000000
Si      -0.85924863       2.11873215      -0.67956774       0.00000000
Si       1.72147411      -3.06380691      -0.05120643       0.00000000
Si       3.21242777      -1.32502860       0.58945817       0.00000000
Si      -0.98158653       1.62465057      -3.02427235       0.00000000
Si      -2.65083912      -0.13590747       2.48564257       0.00000000
Si       2.70621602       2.50040979       0.17547653       0.00000000
Si       0.46520982      -0.16785216      -3.74879178       0.00000000
