10
Lattice="16.28999089631971 0.0 0.0 0.0 16.28999089631971 0.0 0.0 0.0 34.36671206372826" Properties=species:S:1:pos:R:3:initial_magmoms:R:1 pbc="T T T"
Si      -1.13763821      -1.74200373      -1.13331170       0.00000000
Si       2.28498201       0.47309418      -0.44271223       0.00000000
Si      -1.05154719       2.18541753      -0.14492451       0.00000000
Si      -0.06082686      -0.38030634       2.44172189       0.00000000
Si       2.03592420       2.44907118       0.78823535       0.00000000
Si       0.71755821       1.90923687       2.73260190       0.00000000
Si      -2.28471227      -0.26432154      -2.52079974       0.00000000
Si       0.83984724      -2.76534153      -2.06533745       0.00000000
Si       0.73308258       3.51412767      -0.88305316       0.00000000
Si      -2.12621057      -2.98367640       0.62145360       0.00000000
