10
Lattice="16.28999089631971 0.0 0.0 0.0 16.28999089631971 0.0 0.0 0.0 34.36671206372826" Properties=species:S:1:pos:R:3:initial_magmoms:R:1 pbc="T T T"
Si       1.45456668      -1.10737791       1.53891473       0.00000000
Si       1.79960517       1.06326459      -1.18132343       0.00000000
Si      -0.85889025      -1.92184533      -1.35384443       0.00000000
Si      -1.26187227       1.60283826       1.50681964       0.00000000
Si      -2.63814269      -2.55539601       0.11608738       0.00000000
Si       2.80904760      -2.43802656       0.09964290       0.00000000
Si       0.10235007      -2.45664603       2.90630511       0.00000000
Si       1.00872567      -3.54291210      -1.03543181       0.00000000
Si       3.54540447      -0.72063702      -1.39250700       0.00000000
Si      -2.61636459       0.25511769       2.90568651       0.00000000
