10
Lattice="16.28999089631971 0.0 0.0 0.0 16.28999089631971 0.0 0.0 0.0 34.36671206372826" Properties=species:S:1:pos:R:3:initial_magmoms:R:1 pbc="T T T"
Si      -1.35897859       1.35966114      -1.35301821       0.00000000
Si       1.35752715       1.35674523       1.35824195       0.00000000
Si      -1.35757276      -1.35953245       1.35748589       0.00000000
Si       1.35874890      -1.36175115      -1.36126623       0.00000000
Si      -0.02578707       2.70516627      -2.70072676       0.00000000
Si       2.71414206       2.71163340       0.00195890       0.00000000
Si      -0.00057015       2.71339272       2.71479994       0.00000000
Si      -2.71578973       2.71329498       0.00127157       0.00000000
Si      -0.00801468      -2.70314706      -2.72618563       0.00000000
Si      -2.71491194      -0.00128691       2.71514360       0.00000000
