10
Lattice="16.28999089631971 0.0 0.0 0.0 16.28999089631971 0.0 0.0 0.0 34.36671206372826" Properties=species:S:1:pos:R:3:initial_magmoms:R:1 pbc="T T T"
Si       1.12742601      -0.68655834      -1.96966047       0.00000000
Si       1.49095365       1.73877831       0.64066460       0.00000000
Si      -2.05033663       0.91188162      -0.89590632       0.00000000
Si       0.77227795      -1.31417946       1.96673930       0.00000000
Si      -1.72147411       3.06380691       0.05120643       0.00000000
Si       0.51651680       3.45289356      -0.54447212       0.00000000
Si       3.19943256      -1.22974839       1.11530353       0.00000000
Si      -2.54113804      -2.56601709       0.59935579       0.00000000
Si      -0.23831781      -3.46105485       1.34078365       0.00000000
Si       1.91773536      -2.90745549      -1.61994461       0.00000000
