10
Lattice="16.28999089631971 0.0 0.0 0.0 16.28999089631971 0.0 0.0 0.0 34.36671206372826" Properties=species:S:1:pos:R:3:initial_magmoms:R:1 pbc="T T T"
Si       1.35355891      -1.35653346       1.36057889       0.00000000
Si      -1.36030690       1.36068547       1.35958226       0.00000000
Si       1.34678227       1.37387246      -1.36646591       0.00000000
Si      -1.37298703      -1.36749663      -1.37607141       0.00000000
Si       2.71194943      -2.70915732       0.00158087       0.00000000
Si      -2.71784056      -2.70803331       0.00219947       0.00000000
Si      -0.00374670      -2.71138905       2.71720561       0.00000000
Si       2.71354585       2.71526837      -0.00154650       0.00000000
Si       2.71185169       0.00304623       2.71696504       0.00000000
Si      -2.71552738       2.71510221      -0.00171834       0.00000000
