10
Lattice="16.28999089631971 0.0 0.0 0.0 16.28999089631971 0.0 0.0 0.0 34.36671206372826" Properties=species:S:1:pos:R:3:initial_magmoms:R:1 pbc="T T T"
Si       1.07600826      -1.48721184       1.43879757       0.00000000
Si       1.40676042       1.21117779      -1.44501795       0.00000000
Si      -1.41762326      -1.34943102      -1.36786464       0.00000000
Si      -0.61300084       1.91753078       1.33428834       0.00000000
Si      -1.18266996      -2.39593320       2.20486638       0.00000000
Si      -2.95046339      -2.28949434       0.22620183       0.00000000
Si       2.74079739       2.60355644      -0.04388632       0.00000000
Si      -2.69891321       2.66414709       0.17076829       0.00000000
Si       2.47209384      -2.88222228       0.08117422       0.00000000
Si       0.02147511       2.58213997      -2.80504697       0.00000000
