10
Lattice="10.86 0.0 0.0 0.0 10.86 0.0 0.0 0.0 10.86" Properties=species:S:1:pos:R:3:initial_magmoms:R:1 pbc="T T T"
Si       1.35750000       1.35750000       1.35750000       0.00000000
Si      -1.35750000       1.35750000      -1.35750000       0.00000000
Si      -1.35750000      -1.35750000       1.35750000       0.00000000
Si       1.35750000      -1.35750000      -1.35750000       0.00000000
Si       2.55354438      -2.57006244       0.21625518       0.00000000
Si       2.37988212       2.81469480      -0.02317524       0.00000000
Si      -2.49968964      -2.77024482      -0.09565488       0.00000000
Si      -0.18599922       2.63400612      -2.67377544       0.00000000
Si      -2.66586936       2.65554150       0.15408168       0.00000000
Si      -0.02855094      -2.66649924       2.66265480       0.00000000
