10
Lattice="10.86 0.0 0.0 0.0 10.86 0.0 0.0 0.0 10.86" Properties=species:S:1:pos:R:3:initial_magmoms:R:1 pbc="T T T"
Si       1.43342226      -1.44479268      -1.24005996       0.00000000
Si       1.43342226       1.27020732       1.47494004       0.00000000
Si      -1.28157774      -1.44479268       1.47494004       0.00000000
Si      -1.24421934       1.74270420      -1.49014404       0.00000000
Si      -2.58994710      -0.14675118      -2.44347828       0.00000000
Si       2.45580438       0.01240212      -2.62073520       0.00000000
Si       2.75396568       2.54555142       0.05588556       0.00000000
Si       0.07592226      -2.80229268      -2.59755996       0.00000000
Si      -2.63907774      -2.80229268       0.11744004       0.00000000
Si      -2.77148286       2.68839300       0.12634524       0.00000000
