10
Lattice="10.86 0.0 0.0 0.0 10.86 0.0 0.0 0.0 10.86" Properties=species:S:1:pos:R:3:initial_magmoms:R:1 pbc="T T T"
Si       1.02238212       1.45719480      -1.38067524       0.00000000
Si       1.35750000      -1.35750000       1.35750000       0.00000000
Si      -1.35750000      -1.35750000      -1.35750000       0.00000000
Si      -1.43342226       1.44479268       1.24005996       0.00000000
Si       2.71500000       0.00000000       2.71500000       0.00000000
Si      -2.71500000      -2.71500000       0.00000000       0.00000000
Si       0.00000000      -2.71500000      -2.71500000       0.00000000
Si       2.71500000       2.71500000       0.00000000       0.00000000
Si      -2.71500000       0.00000000       2.71500000       0.00000000
Si       2.71500000      -2.71500000       0.00000000       0.00000000
