10
Lattice="16.2900001489832 0.0 0.0 0.0 16.2900001489832 0.0 0.0 0.0 29.08075068521919" Properties=species:S:1:pos:R:3:initial_magmoms:R:1 pbc="T T T"
Si       1.35591445       1.30401663       1.38735537       0.00000000
Si       1.36417348      -1.34570176      -1.35862359       0.00000000
Si      -1.29963250      -1.36653667       1.40817719       0.00000000
Si      -1.34854486       1.39212435      -1.34600255       0.00000000
Si      -2.68745906      -2.66628320       0.01861168       0.00000000
Si      -0.02371824      -2.66124959      -2.72742545       0.00000000
Si       2.70954830       2.68608956       0.02940064       0.00000000
Si       0.01443294       2.73857594       2.67551631       0.00000000
Si       2.71316468      -2.70857205       0.02183964       0.00000000
Si       2.69966027       0.02350452      -2.73751647       0.00000000
