10
Lattice="16.2900001489832 0.0 0.0 0.0 16.2900001489832 0.0 0.0 0.0 29.08075068521919" Properties=species:S:1:pos:R:3:initial_magmoms:R:1 pbc="T T T"
Si      -1.07686675      -0.58894867      -1.95155102       0.00000000
Si       0.75147188      -1.89195320       1.18737141       0.00000000
Si       1.66472887       1.73398907      -0.18559335       0.00000000
Si      -2.63744876       1.19290042       1.00901481       0.00000000
Si      -2.70443324       0.93120157      -1.36161891       0.00000000
Si      -0.84532069       2.05084586       2.36364852       0.00000000
Si       2.02787370      -0.62097481       2.65326953       0.00000000
Si       3.29139453       0.70551991       1.17512871       0.00000000
Si       0.52331625       3.38934809       1.01442383       0.00000000
Si       2.52850124      -2.75354760      -0.07337073       0.00000000
