10
Lattice="16.2900001489832 0.0 0.0 0.0 16.2900001489832 0.0 0.0 0.0 29.08075068521919" Properties=species:S:1:pos:R:3:initial_magmoms:R:1 pbc="T T T"
Si       1.31747005      -1.36959805      -1.38784975       0.00000000
Si      -1.35027811       1.33030657      -1.39634132       0.00000000
Si      -1.38660481      -1.35669637       1.33532991       0.00000000
Si       1.37896480       1.35371530       1.35242939       0.00000000
Si      -0.08218305       2.64412766       2.65574139       0.00000000
Si       2.66028734      -2.73214253      -0.01625614       0.00000000
Si      -0.03934035      -2.75452500       2.64059032       0.00000000
Si       2.71546157       2.69604389      -0.03591473       0.00000000
Si      -2.77869936       2.65821851      -0.10661003       0.00000000
Si       2.70459614      -0.02207295      -2.74455401       0.00000000
