10
Lattice="16.2900001489832 0.0 0.0 0.0 16.2900001489832 0.0 0.0 0.0 29.08075068521919" Properties=species:S:1:pos:R:3:initial_magmoms:R:1 pbc="T T T"
Si      -1.34281729       1.36254448      -1.37159361       0.00000000
Si       1.37762902      -1.34884459      -1.35359262       0.00000000
Si       1.36306576       1.36984240       1.35324365       0.00000000
Si      -1.33196815      -1.40807503       1.34716578       0.00000000
Si       2.72192870      -0.06695190       2.62000115       0.00000000
Si      -2.69962769      -0.02238246       2.65684646       0.00000000
Si      -2.66028734       2.73214253       0.01625614       0.00000000
Si      -2.71274114      -0.00710244      -2.70863928       0.00000000
Si       0.02549385      -2.70790301      -2.71492072       0.00000000
Si       0.04430880       2.71006958      -2.72829787       0.00000000
