10
Lattice="16.2900001489832 0.0 0.0 0.0 16.2900001489832 0.0 0.0 0.0 29.08075068521919" Properties=species:S:1:pos:R:3:initial_magmoms:R:1 pbc="T T T"
Si       0.46245681      -0.26034678      -1.39759180       0.00000000
H       -1.81980479       0.03108132       0.33367253       0.00000000
H        1.99879931      -0.32739642       1.39192105       0.00000000
Si      -1.85502377       1.50796857       0.65969683       0.00000000
Si       1.12933684       0.32205330       2.42373517       0.00000000
Si       0.15212580       2.29443512       1.58472643       0.00000000
Si       1.13683024       1.77681873      -2.18995501       0.00000000
Si      -1.17353927      -1.54303768      -2.45921368       0.00000000
Si       2.68574861      -0.88322752      -1.62573029       0.00000000
Si       1.07044849       3.23608998      -0.35493056       0.00000000
