10
Lattice="16.2900001489832 0.0 0.0 0.0 16.2900001489832 0.0 0.0 0.0 29.08075068521919" Properties=species:S:1:pos:R:3:initial_magmoms:R:1 pbc="T T T"
Si      -0.81984313       0.35010468       2.20670552       0.00000000
Si       0.83013841       2.04369455      -0.90574906       0.00000000
Si       1.77823271      -1.63704727      -0.33556278       0.00000000
Si      -1.90961156      -0.52359318      -1.50524874       0.00000000
H        2.24270948       0.07592769       1.52551802       0.00000000
Si       1.87892120       1.07878897      -2.84520249       0.00000000
Si       0.70786567      -3.04168512      -1.83202913       0.00000000
Si      -0.77949280      -1.77777659      -3.10218908       0.00000000
H        0.91215856      -2.01940616       2.91691562       0.00000000
Si       3.30858048      -0.37471887      -1.66001649       0.00000000
