10
Lattice="16.2900001489832 0.0 0.0 0.0 16.2900001489832 0.0 0.0 0.0 29.08075068521919" Properties=species:S:1:pos:R:3:initial_magmoms:R:1 pbc="T T T"
Si      -1.46114785       1.29041236       1.30331200       0.00000000
Si       1.33649677       1.34232859      -1.38834412       0.00000000
Si       1.35713620      -1.31856148       1.40061620       0.00000000
Si      -1.37896480      -1.35371530      -1.35242939       0.00000000
Si       2.68113854       2.65963574       0.01250472       0.00000000
Si       2.64438830      -2.71601543      -0.01544188       0.00000000
Si      -0.00403992      -2.78945076       2.60708930       0.00000000
Si       2.68913693      -0.02029734      -2.74499022       0.00000000
Si      -0.03414384       2.71938746      -2.71797420       0.00000000
Si      -2.81802342       2.61834059      -0.08971412       0.00000000
