10
Lattice="16.2900001489832 0.0 0.0 0.0 16.2900001489832 0.0 0.0 0.0 29.08075068521919" Properties=species:S:1:pos:R:3:initial_magmoms:R:1 pbc="T T T"
Si      -0.03521898       1.47688725       0.32602430       0.00000000
H        1.81980479      -0.03108132      -0.33367253       0.00000000
Si      -2.25596954      -1.69227038      -0.01500567       0.00000000
Si       2.28226160      -0.29142810      -1.73126433       0.00000000
Si      -1.95779738      -0.66831355       2.13112465       0.00000000
Si      -1.40097259       1.60174847       2.19117640       0.00000000
Si      -0.92525572       2.61953465      -1.51967279       0.00000000
Si      -0.55231246      -2.87909463      -1.21833805       0.00000000
Si       1.97193058       2.26335380       1.25105389       0.00000000
Si       0.64626552      -1.57411900      -2.79288622       0.00000000
