10
Lattice="16.2900001489832 0.0 0.0 0.0 16.2900001489832 0.0 0.0 0.0 29.08075068521919" Properties=species:S:1:pos:R:3:initial_magmoms:R:1 pbc="T T T"
Si      -1.13011876       1.25418340       1.59694034       0.00000000
Si       1.48735846      -1.26390853       1.27015995       0.00000000
Si       1.36117612       1.47088927      -1.20647310       0.00000000
Si      -1.41426523      -1.31878954      -1.31892837       0.00000000
Si       0.77949280       1.77777659       3.10218908       0.00000000
Si       2.64842822       0.07343532      -2.62253118       0.00000000
Si      -2.58357773       2.68703552       0.25471830       0.00000000
Si       0.24913926      -2.65940768       2.62055369       0.00000000
Si       2.55772550       0.14072931       2.76662630       0.00000000
Si      -0.04660569      -2.70448211      -2.62860905       0.00000000
