10
Lattice="16.2900001489832 0.0 0.0 0.0 16.2900001489832 0.0 0.0 0.0 29.08075068521919" Properties=species:S:1:pos:R:3:initial_magmoms:R:1 pbc="T T T"
Si       1.58136805      -1.67128886      -0.06226189       0.00000000
Si      -1.88439464      -0.61152661       1.20152938       0.00000000
Si       1.19716840       1.64923708       1.11114640       0.00000000
Si      -0.35934111       0.62336944      -2.26021410       0.00000000
Si      -2.51494796      -2.34359345      -0.29996794       0.00000000
Si       2.60897384       2.20362977      -0.72120262       0.00000000
Si      -2.18312066       1.99277690      -1.98388881       0.00000000
Si      -0.39744342       3.32873121       1.26605956       0.00000000
Si       1.93675070      -2.02020437      -2.40326232       0.00000000
Si       1.65757268       1.68893418      -2.86180759       0.00000000
