10
Lattice="16.2900001489832 0.0 0.0 0.0 16.2900001489832 0.0 0.0 0.0 29.08075068521919" Properties=species:S:1:pos:R:3:initial_magmoms:R:1 pbc="T T T"
Si      -2.01691379      -1.06556475       0.60159349       0.00000000
Si       1.10736163      -1.89233113      -0.90214305       0.00000000
Si       0.95140117       0.51469559       2.14060498       0.00000000
Si      -0.02254536       1.80587358      -1.58679116       0.00000000
Si       2.19864503       2.41797033      -1.01648856       0.00000000
Si      -2.57338019      -2.27599321      -1.33945938       0.00000000
Si      -1.65757268      -1.68893418       2.86180759       0.00000000
Si       0.27917802      -3.70913855       0.45854528       0.00000000
Si      -1.71525557       3.32411788      -0.86919456       0.00000000
Si       0.81917524      -2.06868667      -3.23831607       0.00000000
