10
Lattice="16.2900001489832 0.0 0.0 0.0 16.2900001489832 0.0 0.0 0.0 29.08075068521919" Properties=species:S:1:pos:R:3:initial_magmoms:R:1 pbc="T T T"
Si      -0.86946247       0.64944973       1.03181412       0.00000000
H        2.17145702      -0.21374109      -0.24893123       0.00000000
H       -1.99879931       0.32739642      -1.39192105       0.00000000
Si       2.20468862       0.54674128      -1.56306127       0.00000000
Si       0.55596142       1.48851505       2.61965218       0.00000000
Si      -1.91721899      -1.11558808       2.17378611       0.00000000
Si       0.68694931      -0.55583110      -3.01765134       0.00000000
Si      -1.53634249       0.06704964      -2.78951285       0.00000000
Si      -1.84667351       2.62183154       0.19280538       0.00000000
Si       0.91276129      -3.15117021       0.02256666       0.00000000
