10
Lattice="16.2900001489832 0.0 0.0 0.0 16.2900001489832 0.0 0.0 0.0 29.08075068521919" Properties=species:S:1:pos:R:3:initial_magmoms:R:1 pbc="T T T"
Si      -1.71578825      -1.02071512       1.23883998       0.00000000
Si       1.09763813      -1.44692668      -1.54363533       0.00000000
Si      -1.44762227       1.37218816      -1.43490240       0.00000000
Si       1.65220186       0.75341251       1.83490813       0.00000000
Si      -1.56978098       0.23429907       3.25314726       0.00000000
Si       2.51720087      -0.09508473      -2.89559943       0.00000000
Si      -1.04732809      -3.01270521       2.25788764       0.00000000
Si       2.60640491      -2.89970148      -0.40878811       0.00000000
Si       3.83605557       0.74163484       0.86425083       0.00000000
Si      -0.24904429       2.67716378      -3.00945057       0.00000000
