10
Lattice="16.2900001489832 0.0 0.0 0.0 16.2900001489832 0.0 0.0 0.0 29.08075068521919" Properties=species:S:1:pos:R:3:initial_magmoms:R:1 pbc="T T T"
Si       1.29380068      -1.38666997       1.37656060       0.00000000
Si       1.86709466       0.88409089      -1.14843200       0.00000000
Si      -1.46148994      -1.24362748      -1.38633173       0.00000000
Si      -1.34337115       1.41108868       1.36074358       0.00000000
H        1.51897735       1.03602772      -2.60667635       0.00000000
H       -0.37726011       2.03245445      -2.64683687       0.00000000
Si       2.68330511      -2.64583323      -0.07239071       0.00000000
Si       2.65934252       0.02393001       2.72626803       0.00000000
Si      -2.77962789      -2.63245262      -0.01687556       0.00000000
Si      -0.05792724      -2.70229111       2.73784217       0.00000000
