10
Lattice="16.2900001489832 0.0 0.0 0.0 16.2900001489832 0.0 0.0 0.0 29.08075068521919" Properties=species:S:1:pos:R:3:initial_magmoms:R:1 pbc="T T T"
Si      -1.34465806      -1.34289874      -1.36993600       0.00000000
Si       1.47966958      -1.25506306       1.31540960       0.00000000
Si       1.35853714       1.34648254      -1.36848197       0.00000000
Si      -1.41822370       1.26705250       1.40521095       0.00000000
Si       0.14072931       2.49440627       2.67167765       0.00000000
Si       0.47452770      -1.41732775       3.44173592       0.00000000
Si      -2.72092850       0.03323160      -2.68147786       0.00000000
Si       2.72619668      -0.03921003      -2.67816265       0.00000000
Si       0.01127268       2.74431117      -2.67374238       0.00000000
Si      -2.80194030      -2.62055603      -0.07502834       0.00000000
