10
Lattice="16.2900001489832 0.0 0.0 0.0 16.2900001489832 0.0 0.0 0.0 29.08075068521919" Properties=species:S:1:pos:R:3:initial_magmoms:R:1 pbc="T T T"
Si      -1.64089171       0.51543189      -1.51565964       0.00000000
Si      -1.40550121       0.08731440       1.83112763       0.00000000
Si       1.10016145      -1.80335189      -0.97449596       0.00000000
Si       1.51524694       1.80729407      -0.03329746       0.00000000
Si       2.03338298      -0.41433615      -2.66885681       0.00000000
Si      -2.24368688      -1.72877627      -2.09070241       0.00000000
Si       1.55914849       2.21514680       2.27161376       0.00000000
Si       2.87381667      -2.01766313       0.60345466       0.00000000
H       -3.45414792       0.66912805       0.96804003       0.00000000
Si      -0.73432063       2.24907887      -2.81647070       0.00000000
