10
Lattice="16.2900001489832 0.0 0.0 0.0 16.2900001489832 0.0 0.0 0.0 29.08075068521919" Properties=species:S:1:pos:R:3:initial_magmoms:R:1 pbc="T T T"
Si       1.35886294      -1.43679430       1.26675750       0.00000000
Si       1.38561112       1.34387614      -1.34748566       0.00000000
Si      -1.36306576      -1.36984240      -1.35324365       0.00000000
Si      -1.28725210       1.39745395       1.41605807       0.00000000
Si       2.65020383      -0.00387702       2.57623462       0.00000000
Si      -2.64842822      -0.07343532       2.62253118       0.00000000
Si      -2.64438830       2.71601543       0.01544188       0.00000000
Si       0.01456326      -2.71868699      -2.70683627       0.00000000
Si       0.04474863       2.69571809      -2.72954834       0.00000000
Si      -2.70588305      -0.00729792      -2.72483726       0.00000000
