10
Lattice="16.2900001489832 0.0 0.0 0.0 16.2900001489832 0.0 0.0 0.0 29.08075068521919" Properties=species:S:1:pos:R:3:initial_magmoms:R:1 pbc="T T T"
Si      -0.57629134      -2.19123308       0.54098920       0.00000000
Si       1.98306317      -0.46662705      -1.13330593       0.00000000
Si       0.85033801       0.85103848       2.02780075       0.00000000
H       -0.78104035      -0.62253865      -2.14531606       0.00000000
Si      -2.25020288       0.93949318      -0.55695454       0.00000000
Si      -0.46193553      -0.01790271      -3.51493217       0.00000000
Si      -1.98086402      -1.83011636       2.38555214       0.00000000
Si      -2.57914685       2.17095203       1.45072233       0.00000000
Si      -0.98782561       1.73856656       3.08020403       0.00000000
H        0.08747730      -2.78031207      -2.43391343       0.00000000
