10
Lattice="16.2900001489832 0.0 0.0 0.0 16.2900001489832 0.0 0.0 0.0 29.08075068521919" Properties=species:S:1:pos:R:3:initial_magmoms:R:1 pbc="T T T"
Si      -1.32175432       1.25724592       1.49552995       0.00000000
Si      -1.19031031      -1.61870473      -1.26480037       0.00000000
Si       1.40050018      -1.35708733       1.38833830       0.00000000
Si       0.87804730       1.80674021      -1.31223107       0.00000000
H       -0.11129328      -2.64424169      -1.50140135       0.00000000
H       -2.87948559       0.17114274      -1.58169331       0.00000000
Si      -2.59489928       2.65696418       0.09352660       0.00000000
Si       2.67017537       2.66468564       0.04240264       0.00000000
Si       0.09018144       2.63560799       2.81365860       0.00000000
Si      -0.83642635       3.57554100      -1.22001601       0.00000000
