10
Lattice="16.2900001489832 0.0 0.0 0.0 16.2900001489832 0.0 0.0 0.0 29.08075068521919" Properties=species:S:1:pos:R:3:initial_magmoms:R:1 pbc="T T T"
Si       1.03897132       0.95630446       1.92729767       0.00000000
Si      -0.73037845       1.35607735      -1.87791856       0.00000000
Si      -1.60182829      -0.10829592       1.87975064       0.00000000
Si       1.62480045      -1.36702423      -1.43929359       0.00000000
Si       1.29877565      -2.31735026       0.66344825       0.00000000
H       -1.40757004      -2.78467779      -0.00200657       0.00000000
Si      -0.47115567      -2.23466222       2.17730488       0.00000000
Si       2.85666330       1.69503968       0.63619958       0.00000000
Si      -2.54791892       2.06215112       1.02338070       0.00000000
Si      -0.20792556      -1.89092693      -2.87317817       0.00000000
