10
Lattice="16.2900001489832 0.0 0.0 0.0 16.2900001489832 0.0 0.0 0.0 29.08075068521919" Properties=species:S:1:pos:R:3:initial_magmoms:R:1 pbc="T T T"
Si      -1.90816175      -0.82104859       1.07203279       0.00000000
Si      -1.27272142       1.35987292      -1.43763599       0.00000000
Si       1.30071090      -1.44630766      -1.34120422       0.00000000
Si       1.42359614       1.19446426       1.49539036       0.00000000
H       -1.51097896      -1.02521116       2.50667347       0.00000000
H       -0.99860959      -2.77632102       1.32291243       0.00000000
Si      -2.49658913       2.71236647       0.04260330       0.00000000
Si      -3.53898624       0.88106095       1.09439589       0.00000000
Si       2.75498112      -0.08619039      -2.63090643       0.00000000
Si       2.84315889       2.54630621       0.14342626       0.00000000
