10
Lattice="16.2900001489832 0.0 0.0 0.0 16.2900001489832 0.0 0.0 0.0 29.08075068521919" Properties=species:S:1:pos:R:3:initial_magmoms:R:1 pbc="T T T"
Si      -0.03836295       0.76137832      -2.23747296       0.00000000
Si       0.75893482       1.80832034       1.37831708       0.00000000
Si      -1.94697593      -0.79345170       1.16289560       0.00000000
Si       1.69362245      -1.75383843       0.07732077       0.00000000
Si      -0.71034175      -2.13116142       2.68834092       0.00000000
Si       2.14713605       0.57339172       2.79441005       0.00000000
Si       3.42964776      -0.76600956       1.34331258       0.00000000
Si       0.70828921      -3.44893512       1.36381741       0.00000000
Si       2.03677130       3.32778639       0.15515540       0.00000000
Si       2.19584315       1.11628855      -3.02969077       0.00000000
