10
Lattice="16.2900001489832 0.0 0.0 0.0 16.2900001489832 0.0 0.0 0.0 29.08075068521919" Properties=species:S:1:pos:R:3:initial_magmoms:R:1 pbc="T T T"
Si      -1.24985026       1.52018281       1.23151163       0.00000000
Si      -1.45862290      -1.31662297      -1.30089830       0.00000000
Si       1.27008244       1.42073236      -1.39442200       0.00000000
Si       1.28917432      -1.38103363       1.41983857       0.00000000
Si      -2.48806946       0.12468366       2.58190537       0.00000000
Si       2.49318452       0.18907803       2.68409513       0.00000000
Si      -0.06582789      -2.62472302      -2.68130337       0.00000000
Si       2.65979864      -2.65981982       0.02820833       0.00000000
Si       2.66629835       0.10275732      -2.72640762       0.00000000
Si       2.56142333       2.85364965      -0.08494487       0.00000000
