10
Lattice="16.2900001489832 0.0 0.0 0.0 16.2900001489832 0.0 0.0 0.0 29.08075068521919" Properties=species:S:1:pos:R:3:initial_magmoms:R:1 pbc="T T T"
Si       1.74931796       0.93550213       1.25555240       0.00000000
Si       0.81238231      -0.33042636      -2.19275578       0.00000000
Si      -0.92892097      -1.88812016       1.12964729       0.00000000
Si      -1.74513143       1.64180396       0.05360600       0.00000000
H       -0.20650833       2.07532973      -2.03574881       0.00000000
H       -2.09324873       1.79374079      -1.40463835       0.00000000
Si       0.43262982       2.22332438       2.69771044       0.00000000
Si      -2.31842540      -0.62895691       2.57859860       0.00000000
Si       1.91987426      -2.40665367      -2.18487489       0.00000000
Si      -0.82233550       3.51145614       1.17913400       0.00000000
