10
Lattice="16.2900001489832 0.0 0.0 0.0 16.2900001489832 0.0 0.0 0.0 29.08075068521919" Properties=species:S:1:pos:R:3:initial_magmoms:R:1 pbc="T T T"
Si       1.35910729      -1.34605297      -1.35801290       0.00000000
Si      -1.31165452      -1.40072222       1.35684967       0.00000000
Si      -1.35501850       1.33629429      -1.38511616       0.00000000
Si       1.36081774       1.33876711       1.38023059       0.00000000
Si      -2.69404022      -0.07145820       2.69212141       0.00000000
Si       2.68868081       0.04588470      -2.70893009       0.00000000
Si      -2.71586882       2.68318082      -0.01355163       0.00000000
Si      -0.02225214      -2.68727385      -2.72701831       0.00000000
Si       2.70560612       2.71409924       0.01701224       0.00000000
Si       2.73039950      -2.69160699       0.01977491       0.00000000
