10
Lattice="16.2900001489832 0.0 0.0 0.0 16.2900001489832 0.0 0.0 0.0 29.08075068521919" Properties=species:S:1:pos:R:3:initial_magmoms:R:1 pbc="T T T"
Si      -1.36081774      -1.33876711      -1.38023059       0.00000000
Si       1.34478838       1.37533213      -1.36321835       0.00000000
Si      -1.37927431       1.36510201       1.34928867       0.00000000
Si       1.33949413      -1.40440978       1.35010293       0.00000000
Si       2.61419153       0.09682776       2.59135661       0.00000000
Si      -2.70405857      -0.06125529       2.68368800       0.00000000
Si      -2.69755886       2.70132185      -0.07092795       0.00000000
Si      -2.67247226      -2.73948932      -0.02338092       0.00000000
Si      -0.00171045      -2.68482008      -2.73824348       0.00000000
Si       2.70849597       0.02803346      -2.72506990       0.00000000
