10
Lattice="16.2900001489832 0.0 0.0 0.0 16.2900001489832 0.0 0.0 0.0 29.08075068521919" Properties=species:S:1:pos:R:3:initial_magmoms:R:1 pbc="T T T"
Si      -0.09873369      -0.35512200       2.24573189       0.00000000
Si      -2.11209626      -0.07599285      -0.84939057       0.00000000
Si       1.51959637      -1.67664827      -0.36883116       0.00000000
Si       0.51328161       2.24673311      -0.18690198       0.00000000
H        2.04178862      -1.96033862       1.03300643       0.00000000
H       -0.18753048      -1.80276545       2.73457931       0.00000000
Si      -1.38056122      -0.53093997      -2.98388859       0.00000000
Si      -1.86339683       1.11715192       2.64969260       0.00000000
Si       0.07449417      -3.39739356      -0.93264876       0.00000000
Si       1.84753037       0.71604325       2.91476364       0.00000000
