10
Lattice="16.2900001489832 0.0 0.0 0.0 16.2900001489832 0.0 0.0 0.0 29.08075068521919" Properties=species:S:1:pos:R:3:initial_magmoms:R:1 pbc="T T T"
Si      -1.87237262       1.15083964      -0.85773674       0.00000000
Si       1.29393100       1.32766759       1.50571403       0.00000000
Si      -1.46759055      -1.42184008       1.25087941       0.00000000
Si       0.68698189       0.06050106      -2.32224335       0.00000000
Si       1.94170286      -2.34087302       0.41823936       0.00000000
Si       0.57510217      -2.76585958      -1.45121670       0.00000000
Si       0.37844928      -2.50071376       2.26015594       0.00000000
Si      -1.05912042       3.35039691      -0.45406684       0.00000000
Si       1.09705006       3.36171846       0.45351431       0.00000000
Si       3.37567899      -0.87628798      -0.91557835       0.00000000
