10
Lattice="16.2900001489832 0.0 0.0 0.0 16.2900001489832 0.0 0.0 0.0 29.08075068521919" Properties=species:S:1:pos:R:3:initial_magmoms:R:1 pbc="T T T"
Si      -1.33021372      -1.32890563       1.39625699       0.00000000
Si       1.33791400       1.31901760       1.45639598       0.00000000
Si      -1.39036292       1.50342040      -1.21253062       0.00000000
Si       1.40926420      -1.44334288      -1.26544014       0.00000000
Si       2.68710068       0.07612317      -2.48860182       0.00000000
Si      -2.62655075      -2.66243762      -0.05423269       0.00000000
Si      -0.04276125       2.87093334      -2.56070812       0.00000000
Si      -2.66243762       0.02427210       2.79605892       0.00000000
Si       0.03057633      -2.67657734       2.78367053       0.00000000
Si       2.71555931       2.74802529       0.23144788       0.00000000
