10
Lattice="16.2900001489832 0.0 0.0 0.0 16.2900001489832 0.0 0.0 0.0 29.08075068521919" Properties=species:S:1:pos:R:3:initial_magmoms:R:1 pbc="T T T"
Si      -1.36723600      -1.37233477      -1.30431529       0.00000000
Si      -1.39396789       1.35827650       1.29484951       0.00000000
Si       1.35586558      -1.42845382       1.27964027       0.00000000
Si       1.36790389       1.40496364      -1.30749382       0.00000000
Si      -2.71769330      -0.06071283       2.63221507       0.00000000
Si      -0.01897785       2.67128309       2.68520020       0.00000000
Si       2.62794029       0.05069448      -2.72894928       0.00000000
Si       2.69819417      -0.08241111       2.66219732       0.00000000
Si      -0.05054787      -2.66015702      -2.74647334       0.00000000
Si      -2.71686251       2.68670972      -0.16599292       0.00000000
