10
Lattice="16.2900001489832 0.0 0.0 0.0 16.2900001489832 0.0 0.0 0.0 29.08075068521919" Properties=species:S:1:pos:R:3:initial_magmoms:R:1 pbc="T T T"
H       -0.46245681       0.26034678       1.39759180       0.00000000
Si       0.67437343       2.03716552      -0.79236321       0.00000000
Si       2.22329180      -0.62288074      -0.22813849       0.00000000
Si      -1.63599608      -1.28269090      -1.06162188       0.00000000
H       -2.28226160       0.29142810       1.73126433       0.00000000
H        2.14667993       1.79784912      -1.09384336       0.00000000
H        1.53634249      -0.06704964       2.78951285       0.00000000
Si      -2.31748058       1.76831535       2.05728863       0.00000000
Si      -0.27057364      -2.69808014      -2.38697710       0.00000000
Si       0.60799168       3.49643676       1.04266124       0.00000000
