10
Lattice="16.2900001489832 0.0 0.0 0.0 16.2900001489832 0.0 0.0 0.0 29.08075068521919" Properties=species:S:1:pos:R:3:initial_magmoms:R:1 pbc="T T T"
Si      -2.15203119       0.52326738       0.67589481       0.00000000
Si       0.51867360       2.03038562      -0.99293315       0.00000000
Si      -0.47436480      -1.53829729      -1.68758504       0.00000000
Si       1.57907116      -0.83698021       1.58030615       0.00000000
Si       2.35683722       1.14285754      -2.04533644       0.00000000
Si      -1.57714894       1.20511792       2.83138913       0.00000000
Si      -2.89033961       1.72403588      -1.33131677       0.00000000
Si      -0.27748386      -3.57234816      -0.63538532       0.00000000
Si       0.37748817      -2.27784701       2.90996532       0.00000000
Si      -1.07264764       2.46277109      -2.62241485       0.00000000
