10
Lattice="16.2900001489832 0.0 0.0 0.0 16.2900001489832 0.0 0.0 0.0 29.08075068521919" Properties=species:S:1:pos:R:3:initial_magmoms:R:1 pbc="T T T"
Si       0.34811730      -0.15193683       1.45824436       0.00000000
H        1.88674040       0.28158894      -0.63111045       0.00000000
H       -1.89623747       0.99642673      -0.04016052       0.00000000
Si      -1.14774454      -1.42081381      -1.92581455       0.00000000
H       -0.51504093       2.68278383      -0.13345156       0.00000000
Si       1.83446579       1.51053913      -1.51286789       0.00000000
Si      -2.63985968       0.39330576      -1.19012972       0.00000000
Si       2.09324873      -1.79374079       1.40463835       0.00000000
Si      -0.13131369       2.71160084      -1.58399941       0.00000000
Si      -1.51897735      -1.03602772       2.60667635       0.00000000
