10
Lattice="16.2900001489832 0.0 0.0 0.0 16.2900001489832 0.0 0.0 0.0 29.08075068521919" Properties=species:S:1:pos:R:3:initial_magmoms:R:1 pbc="T T T"
H        1.47230650      -0.23931639      -0.30148014       0.00000000
Si      -0.67437343      -2.03716552       0.79236321       0.00000000
Si      -1.16601703       0.87291269      -1.80187239       0.00000000
Si      -0.06638175       1.45927125       1.83502445       0.00000000
H       -1.13683024      -1.77681873       2.18995501       0.00000000
Si       1.54891837      -2.66004625       0.56422472       0.00000000
Si      -2.55555893       2.16011592      -0.46194772       0.00000000
Si       2.11045097       2.07614097       1.71489187       0.00000000
Si      -1.16185005       3.30914737       0.99563766       0.00000000
Si       2.14487174      -2.54236729      -1.76723722       0.00000000
