10
Lattice="16.2900001489832 0.0 0.0 0.0 16.2900001489832 0.0 0.0 0.0 29.08075068521919" Properties=species:S:1:pos:R:3:initial_magmoms:R:1 pbc="T T T"
Si      -1.37236735      -1.34407162       1.33844155       0.00000000
Si      -1.34923881       1.43676172      -1.26501265       0.00000000
Si       1.28565568      -1.39536883      -1.38377844       0.00000000
Si       1.39566205       1.36498798       1.30773228       0.00000000
Si       2.66330099       0.03363885      -2.60872655       0.00000000
Si      -0.03275919       2.69289992       2.59746357       0.00000000
Si      -2.70265763       0.14330313      -2.63124959       0.00000000
Si      -0.00158013      -2.68508072       2.68473490       0.00000000
Si       2.69348636      -2.70456356      -0.02082182       0.00000000
Si      -2.70485678       0.03293838       2.69866458       0.00000000
