10
Lattice="16.2900001489832 0.0 0.0 0.0 16.2900001489832 0.0 0.0 0.0 29.08075068521919" Properties=species:S:1:pos:R:3:initial_magmoms:R:1 pbc="T T T"
Si      -0.06698448      -0.26169885      -2.37063372       0.00000000
Si      -0.87804730      -1.80674021       1.31223107       0.00000000
Si       1.79212808       0.85794544       1.35463371       0.00000000
Si      -1.71447365       1.76880080       0.09221506       0.00000000
Si       2.63744876      -1.19290042      -1.00901481       0.00000000
Si      -2.19980162      -0.54949428       2.80776102       0.00000000
Si       0.58015207       2.24915234       2.80547236       0.00000000
Si       1.56058201      -1.78184909      -2.96056582       0.00000000
Si      -3.47294658       0.85022398       1.40575767       0.00000000
Si       3.16076502       2.19644767       0.00540902       0.00000000
