10
Lattice="16.2900001489832 0.0 0.0 0.0 16.2900001489832 0.0 0.0 0.0 29.08075068521919" Properties=species:S:1:pos:R:3:initial_magmoms:R:1 pbc="T T T"
H       -0.74564218       1.20199024       1.78401681       0.00000000
Si       1.33283152      -1.30906441      -1.32451187       0.00000000
Si       0.94353310      -0.58785724       2.10090975       0.00000000
Si       0.86104054       1.87551659      -1.19955189       0.00000000
Si      -2.19833552      -0.75401524      -0.68886482       0.00000000
H        2.02255013      -1.61339419       1.86430876       0.00000000
Si      -1.79336612       2.23518350       2.16802813       0.00000000
H        0.53555004      -3.53844867       0.78672155       0.00000000
Si       0.91927729      -3.50963166      -0.66382630       0.00000000
Si      -3.23527548       1.20321199      -1.43725794       0.00000000
