10
Lattice="16.2900001489832 0.0 0.0 0.0 16.2900001489832 0.0 0.0 0.0 29.08075068521919" Properties=species:S:1:pos:R:3:initial_magmoms:R:1 pbc="T T T"
Si      -2.31163247      -0.21212838       0.35240054       0.00000000
Si       1.04775652       1.76503781      -1.14197200       0.00000000
Si       0.82398079       0.07615575       2.28353687       0.00000000
Si       0.64612657      -2.02380446      -1.18056215       0.00000000
H       -0.99321597       2.29346912       0.72579738       0.00000000
H        1.91721899       1.11558808      -2.17378611       0.00000000
Si       2.47318040       2.60410313       0.44586607       0.00000000
Si      -2.57585627      -2.54291789       0.23767698       0.00000000
Si       1.01118547      -2.20395557       2.75179511       0.00000000
Si       1.34012944      -3.43541442       0.74411825       0.00000000
