10
Lattice="16.2900001489832 0.0 0.0 0.0 16.2900001489832 0.0 0.0 0.0 29.08075068521919" Properties=species:S:1:pos:R:3:initial_magmoms:R:1 pbc="T T T"
Si      -0.74362222      -0.60312097      -1.14996921       0.00000000
H       -0.76805722       1.36233271       0.41091101       0.00000000
H        1.89623747      -0.99642673       0.04016052       0.00000000
H        1.38119653       1.68635711      -0.09329105       0.00000000
Si       1.76492378       1.71517412      -1.54383889       0.00000000
Si       2.24435477      -1.14836356       1.49840487       0.00000000
Si      -1.34566804       2.26725851       1.42122805       0.00000000
Si      -2.44209908      -1.81586261       0.02748131       0.00000000
Si       0.35606682       0.56883052      -3.02753879       0.00000000
Si       0.74849293      -2.41724054      -1.88565404       0.00000000
