10
Lattice="16.2900001489832 0.0 0.0 0.0 16.2900001489832 0.0 0.0 0.0 29.08075068521919" Properties=species:S:1:pos:R:3:initial_magmoms:R:1 pbc="T T T"
Si       1.27783648       1.51946605      -1.22316167       0.00000000
Si       1.38820123      -1.23492862       1.41609297       0.00000000
Si      -1.40926420       1.44334288       1.26544014       0.00000000
Si      -0.75893482      -1.80832034      -1.37831708       0.00000000
Si      -0.23879511       2.72355770      -2.49530871       0.00000000
Si       2.67071294      -2.57432990      -0.03500450       0.00000000
Si       2.63098163       0.27471456      -2.63748450       0.00000000
Si      -0.04935870      -2.61382012       2.67940731       0.00000000
Si      -2.70591075      -2.60177203      -0.21542148       0.00000000
Si      -2.73947792       0.11443725       2.66169713       0.00000000
