10
Lattice="16.2900001489832 0.0 0.0 0.0 16.2900001489832 0.0 0.0 0.0 29.08075068521919" Properties=species:S:1:pos:R:3:initial_magmoms:R:1 pbc="T T T"
Si      -1.24623388      -1.93678328      -0.09462876       0.00000000
Si      -0.87962743       1.24672258      -1.82030959       0.00000000
Si       2.22221666      -0.06579531      -0.89315710       0.00000000
Si      -0.30333609       0.43754940       2.37374536       0.00000000
Si       1.29580435       2.19408383      -1.52755367       0.00000000
Si      -3.08439750      -1.04925520       0.95777452       0.00000000
Si       0.12950550      -3.09767385       1.38910022       0.00000000
Si       0.73360387      -1.51967782       3.12213847       0.00000000
Si      -2.62444934       0.51047973       2.63803122       0.00000000
Si       1.85227076       3.40451229       0.41349919       0.00000000
