10
Lattice="16.2900001489832 0.0 0.0 0.0 16.2900001489832 0.0 0.0 0.0 29.08075068521919" Properties=species:S:1:pos:R:3:initial_magmoms:R:1 pbc="T T T"
Si       1.33021372       1.32890563      -1.39625699       0.00000000
Si      -1.29633703      -1.33353199      -1.45048968       0.00000000
Si      -1.33222391       1.35317773       1.39980193       0.00000000
Si       1.36079005      -1.34767171       1.38741353       0.00000000
Si       2.66812772       2.64792323       0.06013899       0.00000000
Si      -2.65472757      -2.66683430      -0.01709948       0.00000000
Si      -2.73863736       0.12147453      -2.62631168       0.00000000
Si       2.73947792      -0.11443725      -2.66169713       0.00000000
Si       2.69011922      -2.72825737       0.01771018       0.00000000
Si      -2.69006058      -0.00889434       2.75176603       0.00000000
