10
Lattice="16.2900001489832 0.0 0.0 0.0 16.2900001489832 0.0 0.0 0.0 29.08075068521919" Properties=species:S:1:pos:R:3:initial_magmoms:R:1 pbc="T T T"
Si      -1.32932917       1.38058566       1.36970336       0.00000000
Si       1.43755993       1.37889150      -1.26331434       0.00000000
Si       1.38098476      -1.35274686       1.35638437       0.00000000
Si      -1.41991786      -1.32566164      -1.36938347       0.00000000
Si       0.04935870       2.61382012      -2.67940731       0.00000000
Si      -0.00128691      -2.64343534      -2.69390697       0.00000000
Si      -2.73539565      -2.67568954       0.02053101       0.00000000
Si      -2.66722037       0.01587298       2.74789829       0.00000000
Si      -2.69011922       2.72825737      -0.01771018       0.00000000
Si       2.72007164       0.03949022      -2.71441181       0.00000000
