10
Lattice="16.2900001489832 0.0 0.0 0.0 16.2900001489832 0.0 0.0 0.0 29.08075068521919" Properties=species:S:1:pos:R:3:initial_magmoms:R:1 pbc="T T T"
Si      -1.35746819      -1.30939021       1.34248377       0.00000000
Si       1.31603523      -1.42760674      -1.30150900       0.00000000
Si      -1.43044739       1.34252407      -1.30787768       0.00000000
Si       1.35758939       1.23390235       1.48433968       0.00000000
Si       2.63832223       2.59423139       0.05301421       0.00000000
Si       2.55763786      -0.06815736      -2.76357282       0.00000000
Si      -0.10809034       2.71485884      -2.67473112       0.00000000
Si      -0.11445973      -2.72811890      -2.66237181       0.00000000
Si      -2.58133590       0.04310334       2.82272307       0.00000000
Si       2.67023434      -2.75545353       0.14921333       0.00000000
