10
Lattice="16.2900001489832 0.0 0.0 0.0 16.2900001489832 0.0 0.0 0.0 29.08075068521919" Properties=species:S:1:pos:R:3:initial_magmoms:R:1 pbc="T T T"
Si       1.28073284       1.36032904      -1.43132547       0.00000000
Si      -1.35758939      -1.23390235      -1.48433968       0.00000000
Si      -1.36542244       1.41538924       1.32535521       0.00000000
Si       1.40082272      -1.35685927       1.43920635       0.00000000
Si       0.27057364       2.69808014       2.38697710       0.00000000
Si      -2.71505758      -2.54329256      -0.14185590       0.00000000
Si       3.08981881       2.19287837      -0.17262334       0.00000000
Si       2.53968922       0.01177767      -2.87858719       0.00000000
Si      -0.04155416      -2.66150909      -2.78584867       0.00000000
Si      -2.56400041       0.11041362       2.89990338       0.00000000
