10
Lattice="16.2900001489832 0.0 0.0 0.0 16.2900001489832 0.0 0.0 0.0 29.08075068521919" Properties=species:S:1:pos:R:3:initial_magmoms:R:1 pbc="T T T"
Si       1.31245762      -1.37064664      -1.36327651       0.00000000
Si       1.38063290       1.32091588       1.36409077       0.00000000
Si      -1.32957352      -1.39193767       1.35091719       0.00000000
Si      -1.29699352       1.36646597      -1.41861718       0.00000000
Si      -2.68136660       2.66974581      -0.02140343       0.00000000
Si       2.62793540      -0.02061874      -2.75319099       0.00000000
Si       0.01692531       2.66821455       2.72594233       0.00000000
Si      -2.68868081      -0.04588470       2.70893009       0.00000000
Si       2.71852409       2.68562856      -0.01410416       0.00000000
Si      -0.08861760      -2.67816350      -2.74000287       0.00000000
