10
Lattice="16.2900001489832 0.0 0.0 0.0 16.2900001489832 0.0 0.0 0.0 29.08075068521919" Properties=species:S:1:pos:R:3:initial_magmoms:R:1 pbc="T T T"
H       -0.03323160      -0.76048237       1.31413004       0.00000000
Si       1.78002461      -0.91417852      -1.16956963       0.00000000
Si      -1.51773931      -1.10257237      -1.45459007       0.00000000
Si       0.44962029       2.19556459       0.79611463       0.00000000
H       -2.20468862      -0.54674128       1.56306127       0.00000000
H       -1.59435118       1.31815749      -2.32029494       0.00000000
Si       2.01541511      -1.34229601       2.17721764       0.00000000
Si      -1.04003506      -3.31760514      -0.80594392       0.00000000
Si       3.42091632      -1.42961041       0.34609001       0.00000000
Si       2.68659569       0.81946846      -2.47038069       0.00000000
