10
Lattice="16.2900001489832 0.0 0.0 0.0 16.2900001489832 0.0 0.0 0.0 29.08075068521919" Properties=species:S:1:pos:R:3:initial_magmoms:R:1 pbc="T T T"
Si      -1.83816362       0.88752808       1.05240329       0.00000000
Si       1.24623388       1.93678328       0.09462876       0.00000000
Si       1.37573938      -1.16089057       1.48372898       0.00000000
Si      -0.85033801      -0.85103848      -2.02780075       0.00000000
Si      -2.35683722      -1.14285754       2.04533644       0.00000000
Si       0.94289779       2.37433268       2.46837412       0.00000000
Si       1.13272516      -1.31766553      -3.16110668       0.00000000
Si       3.15341823      -1.80027308       0.21173695       0.00000000
Si       0.36660645       3.18350586      -1.72568083       0.00000000
Si      -1.42662934      -3.04227156      -1.48681154       0.00000000
