10
Lattice="16.28999089631971 0.0 0.0 0.0 16.28999089631971 0.0 0.0 0.0 34.51530692428229" Properties=species:S:1:pos:R:3:initial_magmoms:R:1 pbc="T T T"
Si       0.66163464      -2.11835160      -0.70466490       0.00000000
Si       1.51163055       0.09146835       1.79424472       0.00000000
Si       0.65502090       1.05059097      -1.99605583       0.00000000
Si      -2.13097635       1.02705192       0.61168061       0.00000000
Si       2.37856806       2.12623596       1.12154101       0.00000000
Si      -0.06783156       0.70887564       3.38084523       0.00000000
Si      -0.86226228      -3.39811748       0.49325853       0.00000000
Si      -0.62578035       0.01482390      -3.62352249       0.00000000
Si       0.19438857      -2.16758487      -3.05909336       0.00000000
Si      -1.54378701       2.33192979       2.54212281       0.00000000
