10
Lattice="16.28999089631971 0.0 0.0 0.0 16.28999089631971 0.0 0.0 0.0 34.51530692428229" Properties=species:S:1:pos:R:3:initial_magmoms:R:1 pbc="T T T"
Si      -1.35645201      -1.35755973      -1.35759133       0.00000000
Si      -1.35537687       1.35770634       1.35986934       0.00000000
Si       1.35842310       1.35778779      -1.35710811       0.00000000
Si       1.36174626      -1.35747828       1.36159510       0.00000000
Si      -2.71300176      -2.71411600      -0.00089740       0.00000000
Si       2.71379997      -2.71498751       0.00017258       0.00000000
Si      -2.71489140       0.00048870      -2.71431977       0.00000000
Si       0.00073305      -2.71504453      -2.71435428       0.00000000
Si      -2.71531494       2.71409319       0.00117352       0.00000000
Si       0.00073305       2.71507059      -2.71483750       0.00000000
