10
Lattice="16.28999089631971 0.0 0.0 0.0 16.28999089631971 0.0 0.0 0.0 34.51530692428229" Properties=species:S:1:pos:R:3:initial_magmoms:R:1 pbc="T T T"
Si      -1.34446257      -1.36383138      -1.39510949       0.00000000
Si       1.37264427       1.35122292      -1.39372887       0.00000000
Si       1.25771832      -1.46189718       1.46424368       0.00000000
Si      -1.39869198       1.38427533       1.62187518       0.00000000
Si      -2.68656309       2.69390988      -0.02074371       0.00000000
Si      -2.71226871      -2.70531288      -0.02126144       0.00000000
Si       2.71821456       2.70370017      -0.01249455       0.00000000
Si       2.72010420      -2.71888245      -0.01812055       0.00000000
Si      -2.70440064      -0.00744453      -2.75380530       0.00000000
Si       0.01086543       2.70736542      -2.75542752       0.00000000
