10
Lattice="16.28999089631971 0.0 0.0 0.0 16.28999089631971 0.0 0.0 0.0 34.51530692428229" Properties=species:S:1:pos:R:3:initial_magmoms:R:1 pbc="T T T"
Si      -1.25771832       1.46189718      -1.46424368       0.00000000
Si       1.46238588      -1.25698527      -1.48236423       0.00000000
Si       1.66500090       1.06510536       1.43017706       0.00000000
Si      -1.01647971      -1.91832669       1.29836303       0.00000000
Si       2.79946908      -2.54058840       0.04331673       0.00000000
Si       0.88847289      -3.54279807       1.22091063       0.00000000
Si      -2.60218089       0.09806580      -2.85935317       0.00000000
Si       0.11494224      -2.61711882      -2.85762740       0.00000000
Si      -2.74722705      -2.74294278      -0.14023577       0.00000000
Si      -2.65641030       2.84617251       0.15763149       0.00000000
