10
Lattice="16.28999089631971 0.0 0.0 0.0 16.28999089631971 0.0 0.0 0.0 34.51530692428229" Properties=species:S:1:pos:R:3:initial_magmoms:R:1 pbc="T T T"
Si      -1.29981168      -0.46734381       1.79735110       0.00000000
Si       0.71788401       2.15809920      -0.27791741       0.00000000
Si       1.97789922      -1.16238924       0.62921440       0.00000000
Si      -1.41152850      -0.59365647      -1.83656051       0.00000000
Si      -1.42998507      -2.75975406       1.24852290       0.00000000
Si       0.50771043      -0.92672181       3.38733411       0.00000000
Si       1.79613540       2.05008021      -2.37693245       0.00000000
Si      -3.08424271       1.02643290       1.61272862       0.00000000
Si       0.97318089      -3.21921351       1.40608536       0.00000000
Si      -2.55674808      -2.49298902      -1.06100113       0.00000000
