10
Lattice="16.28999089631971 0.0 0.0 0.0 16.28999089631971 0.0 0.0 0.0 34.51530692428229" Properties=species:S:1:pos:R:3:initial_magmoms:R:1 pbc="T T T"
Si       1.35641943       1.35661491      -1.35634877       0.00000000
Si      -1.35728280       1.35733167       1.35724617       0.00000000
Si      -1.35821133      -1.35817875      -1.35596911       0.00000000
Si       1.35746199      -1.35755973       1.35762584       0.00000000
Si       2.71430496      -0.00143352       2.71407816       0.00000000
Si      -2.71478226       0.00100998       2.71494104       0.00000000
Si       2.71510317       2.71464705       0.00010355       0.00000000
Si      -2.71478551       2.71521720      -0.00024161       0.00000000
Si      -2.71488651      -2.71541268       0.00006903       0.00000000
Si       2.71508688      -2.71526607      -0.00031064       0.00000000
