10
Lattice="16.28999089631971 0.0 0.0 0.0 16.28999089631971 0.0 0.0 0.0 34.51530692428229" Properties=species:S:1:pos:R:3:initial_magmoms:R:1 pbc="T T T"
Si      -1.35641943      -1.35661491       1.35634877       0.00000000
Si       1.35782037      -1.35350352      -1.36100834       0.00000000
Si       1.35868374       1.35803214       1.35645232       0.00000000
Si      -1.35891180       1.35747828      -1.36059416       0.00000000
Si      -2.71370223       0.00071676       2.71359495       0.00000000
Si       2.71334385       2.71454931      -0.00024161       0.00000000
Si       0.00104256      -2.71417464       2.71397462       0.00000000
Si       2.71528236      -2.71339272      -0.00100094       0.00000000
Si       0.00123804       2.71541268       2.71369849       0.00000000
Si      -2.71360449       2.71580364      -0.00106998       0.00000000
