10
Lattice="16.28999089631971 0.0 0.0 0.0 16.28999089631971 0.0 0.0 0.0 34.51530692428229" Properties=species:S:1:pos:R:3:initial_magmoms:R:1 pbc="T T T"
Si       1.35369900      -1.35910728      -1.36059416       0.00000000
Si      -1.36194174       1.35715248      -1.35862679       0.00000000
Si      -1.34372952      -1.37256282       1.37408965       0.00000000
Si       1.35435060       1.35519768       1.38637711       0.00000000
Si       2.71003698       2.71443528       0.00472860       0.00000000
Si       2.71197549      -0.00001629      -2.71718454       0.00000000
Si       2.71547784      -2.71524978       0.00110449       0.00000000
Si      -0.00294849       2.71435383      -2.71732260       0.00000000
Si      -0.00314397      -2.71523349      -2.71704648       0.00000000
Si      -2.71572219       2.71681362       0.00138061       0.00000000
