10
Lattice="16.28999089631971 0.0 0.0 0.0 16.28999089631971 0.0 0.0 0.0 34.51530692428229" Properties=species:S:1:pos:R:3:initial_magmoms:R:1 pbc="T T T"
Si      -1.55644434       1.70681733      -0.11286512       0.00000000
Si      -0.24470838      -0.98907993       2.18412984       0.00000000
Si       0.77069619      -1.55098719      -1.73501642       0.00000000
Si       1.21099860       2.23000326      -0.00531536       0.00000000
Si       1.84658553      -0.21853035       2.97297762       0.00000000
Si       2.16267669      -2.97776313      -0.21144089       0.00000000
Si      -2.64987801       1.49196852      -2.14274597       0.00000000
Si       0.24438258      -3.25975932       1.83966689       0.00000000
Si       2.00064006      -0.15431517      -3.18517785       0.00000000
Si       0.59875524       3.25436733       2.01100097       0.00000000
