10
Lattice="16.28999089631971 0.0 0.0 0.0 16.28999089631971 0.0 0.0 0.0 34.51530692428229" Properties=species:S:1:pos:R:3:initial_magmoms:R:1 pbc="T T T"
Si       0.48909096      -2.27067939      -0.34446296       0.00000000
Si       2.09129391       0.77054958       0.78884778       0.00000000
Si      -1.93932450       0.24990489       1.38378846       0.00000000
Si       0.24470838       0.98907993      -2.18412984       0.00000000
Si       1.49167530      -2.68850160       1.81067401       0.00000000
Si       1.55369133       2.86591599       1.68659142       0.00000000
Si       2.80746747      -0.81313164       2.35228851       0.00000000
Si      -1.31173596       2.69589726      -2.29699496       0.00000000
Si      -3.61519083      -1.11363327       0.45732807       0.00000000
Si      -1.53780858      -0.87959484       3.43586266       0.00000000
