10
Lattice="16.28999089631971 0.0 0.0 0.0 16.28999089631971 0.0 0.0 0.0 34.51530692428229" Properties=species:S:1:pos:R:3:initial_magmoms:R:1 pbc="T T T"
Si      -1.28780595       1.22906421       1.72607695       0.00000000
Si       1.27928628      -1.58998545       1.62473995       0.00000000
Si       1.07795817       1.45052676      -1.88398457       0.00000000
Si      -1.19773854      -1.32237333      -1.91083749       0.00000000
Si       0.36761643       3.62432952      -1.29114932       0.00000000
Si      -3.02717070       0.04336398      -2.40392344       0.00000000
Si       0.38452545       2.27208033       3.11172720       0.00000000
Si      -2.38353651      -0.38975454       3.11485084       0.00000000
Si       1.79646120      -3.57091461       0.39637401       0.00000000
Si      -3.17563776       2.26271358      -1.10021054       0.00000000
