10
Lattice="16.28999089631971 0.0 0.0 0.0 16.28999089631971 0.0 0.0 0.0 34.51530692428229" Properties=species:S:1:pos:R:3:initial_magmoms:R:1 pbc="T T T"
Si      -1.35415512      -1.35713619      -1.35824712       0.00000000
Si      -1.35423657       1.36137159       1.35614168       0.00000000
Si       1.36047564       1.35852150      -1.35804003       0.00000000
Si       1.35883035      -1.35705474       1.36380408       0.00000000
Si      -2.71046052       2.71637446      -0.00196737       0.00000000
Si      -2.71197549       0.00087966      -2.71545877       0.00000000
Si      -2.71314837      -2.71433754       0.00044870       0.00000000
Si       0.00042354       2.69125528       2.73692731       0.00000000
Si       0.00329058      -2.71451673      -2.71549329       0.00000000
Si       0.00327429       2.71544593      -2.71542426       0.00000000
