10
Lattice="16.28999089631971 0.0 0.0 0.0 16.28999089631971 0.0 0.0 0.0 34.51530692428229" Properties=species:S:1:pos:R:3:initial_magmoms:R:1 pbc="T T T"
Si       1.35466011       1.32988369       1.38078563       0.00000000
Si      -1.35622395       1.35500287      -1.35810906       0.00000000
Si       1.35423657      -1.36137159      -1.35614168       0.00000000
Si      -1.36686132      -1.36332639       1.37802440       0.00000000
Si      -0.14364522       2.58581663       2.72177508       0.00000000
Si      -2.71559187       2.70999530       0.00024161       0.00000000
Si       0.00032580       2.71155914      -2.71480298       0.00000000
Si      -2.71269225      -2.71604799       0.00431442       0.00000000
Si       2.71471221      -0.00285009      -2.71418171       0.00000000
Si      -2.71528236      -0.00250922      -2.71438880       0.00000000
