10
Lattice="16.28999089631971 0.0 0.0 0.0 16.28999089631971 0.0 0.0 0.0 34.51530692428229" Properties=species:S:1:pos:R:3:initial_magmoms:R:1 pbc="T T T"
Si      -0.61224336       1.02436407       2.01631633       0.00000000
Si      -0.57832758       1.54039869      -1.73128876       0.00000000
Si       2.43185265      -0.40319379       0.00234704       0.00000000
Si      -1.21099860      -2.23000326       0.00531536       0.00000000
Si      -2.76744294      -0.52318593      -0.10754976       0.00000000
Si       1.06152156       2.64267783       1.82834586       0.00000000
Si       2.56898187      -2.17943910       1.60482461       0.00000000
Si       2.75327064      -1.55453841      -2.07409498       0.00000000
Si      -2.02416282       0.30327093      -3.25382883       0.00000000
Si       0.09798435      -0.35316720       3.87603662       0.00000000
