10
Lattice="16.28999089631971 0.0 0.0 0.0 16.28999089631971 0.0 0.0 0.0 34.51530692428229" Properties=species:S:1:pos:R:3:initial_magmoms:R:1 pbc="T T T"
Si       1.35586557       1.35698144       1.35714263       0.00000000
Si      -1.35720135       1.35692443      -1.35738423       0.00000000
Si       1.35759231      -1.35795135      -1.35786745       0.00000000
Si      -1.36047564      -1.35852150       1.35804003       0.00000000
Si      -2.71414206      -0.00075825      -2.71390558       0.00000000
Si      -2.71438641       2.71440923      -0.00062128       0.00000000
Si      -2.71471221       0.00285009       2.71418171       0.00000000
Si       2.71425609      -0.00073659      -2.71490653       0.00000000
Si       2.71479366       2.71504454       0.00027612       0.00000000
Si      -0.00058644       2.71452326      -2.71542426       0.00000000
