10
Lattice="16.28999089631971 0.0 0.0 0.0 16.28999089631971 0.0 0.0 0.0 34.51530692428229" Properties=species:S:1:pos:R:3:initial_magmoms:R:1 pbc="T T T"
Si       1.26237889       1.82274349      -0.68105642       0.00000000
Si      -2.33260324       0.37662480      -0.31243273       0.00000000
Si       0.87133744      -1.79271517      -1.30926987       0.00000000
Si       0.28604425      -0.38169166       2.38645869       0.00000000
Si      -0.44881556      -3.53248717      -0.63439170       0.00000000
Si       0.81055945       3.54054028       0.90654504       0.00000000
Si       3.55247596       1.34038030      -0.40520993       0.00000000
Si       0.97762969       2.08861258      -3.05505507       0.00000000
Si      -3.51571336      -1.58586475       0.37224779       0.00000000
Si      -2.76199135       0.70411733      -2.66420352       0.00000000
