10
Lattice="16.28999089631971 0.0 0.0 0.0 16.28999089631971 0.0 0.0 0.0 34.51530692428229" Properties=species:S:1:pos:R:3:initial_magmoms:R:1 pbc="T T T"
Si      -0.49811562       1.00310562      -2.23655862       0.00000000
Si       1.75510089       0.67411278       1.70353844       0.00000000
Si       1.27062000      -2.11513107      -0.69513867       0.00000000
Si      -2.35367694      -0.46113732       0.94019749       0.00000000
Si       1.89229527      -1.53290529       2.57318660       0.00000000
Si      -0.38861424       3.73848984       0.83744536       0.00000000
Si      -1.36293543      -0.78431463      -3.61095891       0.00000000
Si       3.27901410       2.28850065       0.56228918       0.00000000
Si      -2.29174236      -1.18910484       3.19939816       0.00000000
Si       0.79915482       1.74451239       3.66794372       0.00000000
