10
Lattice="16.28999089631971 0.0 0.0 0.0 16.28999089631971 0.0 0.0 0.0 34.51530692428229" Properties=species:S:1:pos:R:3:initial_magmoms:R:1 pbc="T T T"
Si      -0.00224802      -1.89400802       1.43469856       0.00000000
Si       1.40344866       1.62732702       1.01402577       0.00000000
Si       0.48319398       0.30194004      -2.35953673       0.00000000
Si      -2.30311278       0.77226492       0.04117678       0.00000000
Si      -1.42175862       1.92641142      -2.28208434       0.00000000
Si      -0.36828432       3.21123630       1.14242278       0.00000000
Si      -0.00190593      -0.93679555       3.53405877       0.00000000
Si       1.46538324       0.89935950       3.27322645       0.00000000
Si      -0.30972177      -1.60021787      -3.50351270       0.00000000
Si      -2.59538796       2.54759799       1.64344726       0.00000000
