10
Lattice="16.28999089631971 0.0 0.0 0.0 16.28999089631971 0.0 0.0 0.0 34.51530692428229" Properties=species:S:1:pos:R:3:initial_magmoms:R:1 pbc="T T T"
Si      -0.05175333       1.64990007      -1.65821982       0.00000000
Si      -2.26201311       0.05577696       0.65586023       0.00000000
Si       0.93882528      -1.60055766      -1.49151079       0.00000000
Si       1.03316067       0.80521470       1.99139626       0.00000000
Si      -2.75156019       2.33401491       0.62500353       0.00000000
Si      -0.52846389      -3.43671270      -1.23067847       0.00000000
Si       2.12138154       2.45659716      -1.84729477       0.00000000
Si      -0.89484228       0.71131914      -3.62231446       0.00000000
Si      -3.54281436      -0.97999011      -0.97160643       0.00000000
Si       3.18542805      -1.95005961      -0.72071453       0.00000000
