10
Lattice="16.28999089631971 0.0 0.0 0.0 16.28999089631971 0.0 0.0 0.0 34.51530692428229" Properties=species:S:1:pos:R:3:initial_magmoms:R:1 pbc="T T T"
Si      -0.83631231      -1.68781016      -1.45471745       0.00000000
Si      -0.66468087       1.92205710      -1.25131864       0.00000000
Si      -1.55616741      -0.29857941       1.83838982       0.00000000
Si       2.30796720      -0.55540755       0.55297004       0.00000000
Si      -3.52792530      -0.76776399       0.62703993       0.00000000
Si       0.60245307       1.95069492      -3.22794234       0.00000000
Si      -1.87597269       2.42975124       2.33223511       0.00000000
Si      -0.45033705      -3.82864589      -0.46820040       0.00000000
Si       0.24019605      -1.61117874      -3.54406821       0.00000000
Si      -3.23885925      -1.58030919      -1.58722179       0.00000000
