10
Lattice="16.28999089631971 0.0 0.0 0.0 16.28999089631971 0.0 0.0 0.0 34.51530692428229" Properties=species:S:1:pos:R:3:initial_magmoms:R:1 pbc="T T T"
Si       1.81856673      -0.49433634      -1.41636544       0.00000000
Si      -1.11827592      -1.70720829       1.27562433       0.00000000
Si       1.74174309       1.34936586       1.15030263       0.00000000
Si      -0.22867902       0.06830397      -2.69957624       0.00000000
Si      -2.23964694       0.71487036      -1.52564097       0.00000000
Si      -2.41802244      -0.19166814       2.64519247       0.00000000
Si       0.31521150       2.52763785       2.66662649       0.00000000
Si      -2.75682186       2.69579952      -0.29727502       0.00000000
Si       2.94829452      -2.53602720      -0.26472707       0.00000000
Si       0.32013108      -2.89830051       2.68942386       0.00000000
