10
Lattice="16.28999089631971 0.0 0.0 0.0 16.28999089631971 0.0 0.0 0.0 34.51530692428229" Properties=species:S:1:pos:R:3:initial_magmoms:R:1 pbc="T T T"
Si      -2.01096792       0.64656639       1.17393528       0.00000000
Si      -0.06620256       2.04936345      -1.35831615       0.00000000
Si       2.04724575      -0.56264031       1.28321080       0.00000000
Si       0.22867902      -0.06830397       2.69957624       0.00000000
Si       0.31980528      -2.72833065      -0.49384529       0.00000000
Si       1.67612697       1.67617584      -2.88579191       0.00000000
Si      -2.71777473      -1.22217354      -2.25816522       0.00000000
Si       3.55641651       1.13920857       0.42426239       0.00000000
Si      -3.74515245      -0.42538077      -0.22614442       0.00000000
Si       1.21129182      -0.50769414      -3.58355374       0.00000000
