10
Lattice="16.28999089631971 0.0 0.0 0.0 16.28999089631971 0.0 0.0 0.0 34.51530692428229" Properties=species:S:1:pos:R:3:initial_magmoms:R:1 pbc="T T T"
Si       1.39186647      -1.69262874       0.87144296       0.00000000
Si      -2.08873638      -0.97404426      -0.63960351       0.00000000
Si      -0.47143260       2.05428303       1.17134663       0.00000000
Si       1.40398623       0.63456066      -2.08092902       0.00000000
Si      -0.71692290      -2.60973945      -2.19010099       0.00000000
Si       3.55250691      -0.14576292      -0.92404431       0.00000000
Si      -0.28714383       2.67918372      -2.50757296       0.00000000
Si       1.53368721       2.46733227       2.34428096       0.00000000
Si       0.40596309      -0.92634714      -3.62238349       0.00000000
Si      -0.60856182       3.83052834      -0.43113094       0.00000000
