10
Lattice="16.28999089631971 0.0 0.0 0.0 16.28999089631971 0.0 0.0 0.0 34.51530692428229" Properties=species:S:1:pos:R:3:initial_magmoms:R:1 pbc="T T T"
Si       1.63934415      -1.08743895      -1.29252994       0.00000000
Si      -1.92647169      -0.74290545      -1.13797031       0.00000000
Si       0.39612393       2.19921516      -0.77283267       0.00000000
Si      -0.53656002      -0.46779993       2.26513731       0.00000000
Si      -1.15764885      -2.95357248      -1.44501865       0.00000000
Si       0.94916943      -0.10274103      -3.38616059       0.00000000
Si      -1.62062694       2.83393872      -1.80718797       0.00000000
Si       1.13093325      -3.32431659      -1.28179567       0.00000000
Si      -2.56666869       0.94084524      -2.67814771       0.00000000
Si      -2.90243817      -0.60564591       2.42801514       0.00000000
