10
Lattice="16.28999089631971 0.0 0.0 0.0 16.28999089631971 0.0 0.0 0.0 34.51530692428229" Properties=species:S:1:pos:R:3:initial_magmoms:R:1 pbc="T T T"
Si      -1.66597408      -0.99619866       1.26056978       0.00000000
Si      -0.67357099       0.78644862      -2.07887919       0.00000000
Si       0.95060295       1.73579724       1.30370703       0.00000000
Si       1.59949392      -1.78756686      -0.20811400       0.00000000
Si       1.12246571       2.40117858      -1.94685807       0.00000000
Si       2.90689674       0.90740187      -1.76223559       0.00000000
Si       2.33231586       0.38442771       2.66549888       0.00000000
Si      -0.39492546      -2.35216197       2.67270222       0.00000000
Si      -3.18325726      -1.96659396      -0.26937870       0.00000000
Si       2.77672335      -1.38500838      -2.31106379       0.00000000
