10
Lattice="16.28999089631971 0.0 0.0 0.0 16.28999089631971 0.0 0.0 0.0 34.51530692428229" Properties=species:S:1:pos:R:3:initial_magmoms:R:1 pbc="T T T"
Si      -0.85654449      -1.55872494      -1.50683560       0.00000000
Si      -1.21311630      -0.38827215       1.98818634       0.00000000
Si       2.25828270      -0.62398845       0.34977832       0.00000000
Si      -0.38597526       2.14083573      -0.98651705       0.00000000
Si       3.44139282       1.33850110      -0.33490221       0.00000000
Si      -2.78852220       2.24833670      -1.11902139       0.00000000
Si      -0.72866799       1.35040095       3.45073877       0.00000000
Si      -3.51126063      -0.45115155       1.43701109       0.00000000
Si       2.50237206      -1.20387987       2.64114728       0.00000000
Si       0.69053310       2.21746715      -3.07586781       0.00000000
