10
Lattice="16.28999089631971 0.0 0.0 0.0 16.28999089631971 0.0 0.0 0.0 34.51530692428229" Properties=species:S:1:pos:R:3:initial_magmoms:R:1 pbc="T T T"
Si       1.35584015      -1.35483834       1.35786745       0.00000000
Si      -1.35767376      -1.35556788      -1.35607265       0.00000000
Si       1.35696152       1.35935977      -1.35614168       0.00000000
Si      -1.35646830       1.35703030       1.36480503       0.00000000
Si       2.71337221      -2.71251210       0.00176028       0.00000000
Si      -0.00060273      -2.71269129      -2.71328431       0.00000000
Si       2.71447179       0.00179516      -2.71304270       0.00000000
Si       2.71425839       2.71494841      -0.00010355       0.00000000
Si      -2.71477737      -2.71490673       0.00148416       0.00000000
Si      -2.71583622       0.00199553      -2.71387107       0.00000000
