10
Lattice="16.28999089631971 0.0 0.0 0.0 16.28999089631971 0.0 0.0 0.0 34.51530692428229" Properties=species:S:1:pos:R:3:initial_magmoms:R:1 pbc="T T T"
Si      -1.42653159       1.17827199       1.51632386       0.00000000
Si      -1.74174309      -1.34936586      -1.15030263       0.00000000
Si       1.28866932      -1.52842554       1.49307434       0.00000000
Si       1.28260944       1.56081006      -1.77861415       0.00000000
Si       0.07682364      -1.84370220      -2.56666808       0.00000000
Si       2.70358614       2.58387093      -0.11801825       0.00000000
Si       1.58599440      -0.14185332      -3.42561648       0.00000000
Si      -2.90190060       2.44560141       0.14260007       0.00000000
Si      -0.07683993       2.53592946       2.88279943       0.00000000
Si       2.63681343      -0.17808228       2.88597484       0.00000000
