10
Lattice="16.28999089631971 0.0 0.0 0.0 16.28999089631971 0.0 0.0 0.0 34.51530692428229" Properties=species:S:1:pos:R:3:initial_magmoms:R:1 pbc="T T T"
Si       1.35690013       1.35762489      -1.35721166       0.00000000
Si      -1.35711990       1.35713619       1.35762584       0.00000000
Si      -1.35733167      -1.35803214      -1.35707360       0.00000000
Si       1.35777602      -1.35801585       1.35724617       0.00000000
Si       0.00003258      -2.71457863      -2.71287013       0.00000000
Si       2.71507289      -0.00242721       2.71328431       0.00000000
Si      -2.71479366       2.71464705      -0.00027612       0.00000000
Si       2.71534330       2.71427238       0.00003452       0.00000000
Si      -2.71502172      -2.71538010      -0.00048321       0.00000000
Si      -0.00257382       2.71565703      -2.71494104       0.00000000
