10
Lattice="16.28999089631971 0.0 0.0 0.0 16.28999089631971 0.0 0.0 0.0 34.51530692428229" Properties=species:S:1:pos:R:3:initial_magmoms:R:1 pbc="T T T"
Si       0.19460034       1.84331124      -1.37284710       0.00000000
Si       2.27479980      -0.40985640      -0.06578621       0.00000000
Si      -1.38652335      -1.65796362      -0.92635684       0.00000000
Si      -0.04258206       0.72669690       2.24801771       0.00000000
Si       2.72880047       1.77640821       1.02503616       0.00000000
Si      -1.76718807       2.86892964      -0.67153019       0.00000000
Si      -0.32290038       0.80505180      -3.40559272       0.00000000
Si       2.57407154      -1.84538007       1.66798765       0.00000000
Si      -1.24708095      -3.29779647       0.79640664       0.00000000
Si      -3.49073523       1.28326104      -0.30273393       0.00000000
