10
Lattice="16.28999089631971 0.0 0.0 0.0 16.28999089631971 0.0 0.0 0.0 34.51530692428229" Properties=species:S:1:pos:R:3:initial_magmoms:R:1 pbc="T T T"
Si       1.35375551      -1.35793440       1.36180220       0.00000000
Si      -1.36014984       1.35883035       1.36211283       0.00000000
Si       1.36187749       1.34656398      -1.38654968       0.00000000
Si      -1.35534429      -1.36262592      -1.39079162       0.00000000
Si       2.71425513      -2.71438641       0.00151867       0.00000000
Si       2.71223680       2.71889874       0.00086288       0.00000000
Si       2.71278903       0.00117288       2.71918643       0.00000000
Si      -2.71873584       2.71337643       0.00220898       0.00000000
Si      -2.71888245      -2.71406061       0.00134610       0.00000000
Si      -0.00275301      -2.71414206       2.71908288       0.00000000
