10
Lattice="16.28999089631971 0.0 0.0 0.0 16.28999089631971 0.0 0.0 0.0 34.51530692428229" Properties=species:S:1:pos:R:3:initial_magmoms:R:1 pbc="T T T"
Si      -2.06233029      -0.53600616      -0.92079987       0.00000000
Si       1.49343462       1.10069901      -1.40273737       0.00000000
Si       0.65585169      -2.20369491       0.42329596       0.00000000
Si      -0.39187224       1.71331704       1.68904200       0.00000000
Si      -3.34451619      -0.09120771       0.95528068       0.00000000
Si       0.49322862       3.19860666      -1.38772321       0.00000000
Si       1.23149142      -2.05180695       2.68253115       0.00000000
Si      -2.71920825       2.13972408       1.54355990       0.00000000
Si       0.73485819       3.62955861       0.98969246       0.00000000
Si       3.50331830       1.54491102      -0.24857938       0.00000000
