10
Lattice="16.28999089631971 0.0 0.0 0.0 16.28999089631971 0.0 0.0 0.0 34.51530692428229" Properties=species:S:1:pos:R:3:initial_magmoms:R:1 pbc="T T T"
Si      -1.71380574      -1.12260906      -1.12482894       0.00000000
Si       1.80273678       0.92173707      -1.19667884       0.00000000
Si       1.33726330      -1.29443598       1.49908691       0.00000000
Si      -1.36878354       1.42237764       1.51260311       0.00000000
Si      -1.77029946       1.38147345      -2.75159429       0.00000000
Si       2.65169990       2.74732383       0.14617586       0.00000000
Si       2.76864418      -2.69922042      -0.04533933       0.00000000
Si       1.61074935      -0.44440749      -3.52722270       0.00000000
Si      -0.02461419      -2.64099996       2.88563659       0.00000000
Si       2.68762261       0.07789878       2.88649947       0.00000000
