10
Lattice="16.28999089631971 0.0 0.0 0.0 16.28999089631971 0.0 0.0 0.0 34.51530692428229" Properties=species:S:1:pos:R:3:initial_magmoms:R:1 pbc="T T T"
Si       1.35423657      -1.35514881      -1.35848872       0.00000000
Si       1.35718506       1.35553977       1.35527880       0.00000000
Si      -1.35920502       1.35819504      -1.35748778       0.00000000
Si      -1.35524655      -1.36819710       1.35327691       0.00000000
Si      -2.68705179      -0.03870504       2.71483750       0.00000000
Si       2.70841523      -2.70708849       0.00376217       0.00000000
Si       0.00760743       2.61490338       2.79798492       0.00000000
Si       2.71199990       0.00299736      -2.71483750       0.00000000
Si      -2.71678104      -2.71011843       0.00103546       0.00000000
Si      -0.00286704      -2.71213839      -2.71532071       0.00000000
