10
Lattice="16.28999089631971 0.0 0.0 0.0 16.28999089631971 0.0 0.0 0.0 34.51530692428229" Properties=species:S:1:pos:R:3:initial_magmoms:R:1 pbc="T T T"
Si      -1.41766983       1.55715998       0.87851860       0.00000000
Si      -1.38629529      -1.90045656      -0.02108886       0.00000000
Si      -0.27800514       0.09814725      -2.34265874       0.00000000
Si       2.17145700       0.36103527       1.01374965       0.00000000
Si      -0.95995341       3.54173012      -0.22897467       0.00000000
Si       1.27402461       1.68984056      -3.03258559       0.00000000
Si      -0.38410191      -3.37357755       1.48067298       0.00000000
Si       3.17166300      -1.73687238       0.99873548       0.00000000
Si       0.31591197      -1.96703379      -3.21786386       0.00000000
Si      -3.63926745       0.77343291       0.89322213       0.00000000
