10
Lattice="16.28999089631971 0.0 0.0 0.0 16.28999089631971 0.0 0.0 0.0 34.51530692428229" Properties=species:S:1:pos:R:3:initial_magmoms:R:1 pbc="T T T"
Si      -1.00020600       2.09790765       0.01501417       0.00000000
Si      -1.49343462      -1.10069901       1.40273737       0.00000000
Si       0.48887986      -1.09467171      -2.01645439       0.00000000
Si       2.00988368       0.44421201       1.15415799       0.00000000
Si      -0.75857643       2.52885960       2.39242984       0.00000000
Si       0.60688462       3.31407623      -1.17704165       0.00000000
Si       2.81438162      -0.73463013      -2.14005377       0.00000000
Si      -1.88530686       0.61261803       3.09177938       0.00000000
Si      -3.17166300       1.73687238      -0.99873548       0.00000000
Si       2.57934950      -1.39875714       2.40299153       0.00000000
