10
Lattice="16.28999089631971 0.0 0.0 0.0 16.28999089631971 0.0 0.0 0.0 34.51530692428229" Properties=species:S:1:pos:R:3:initial_magmoms:R:1 pbc="T T T"
Si      -2.16981171       0.82846935      -0.44379806       0.00000000
Si       1.06122834      -1.72581147      -1.25338956       0.00000000
Si       1.37111301       1.93260392      -0.52125046       0.00000000
Si       0.05649372      -2.50408251       1.62676535       0.00000000
Si      -2.65426002      -0.91020375      -1.90635050       0.00000000
Si      -0.92592360       1.50563976       2.91381632       0.00000000
Si       0.31019418       3.13213436       1.34074785       0.00000000
Si      -2.86809885       0.64645629       1.75307522       0.00000000
Si       1.77029946      -1.38147345       2.75159429       0.00000000
Si      -0.17932032      -3.58474482      -0.42622976       0.00000000
