10
Lattice="16.28999089631971 0.0 0.0 0.0 16.28999089631971 0.0 0.0 0.0 34.51530692428229" Properties=species:S:1:pos:R:3:initial_magmoms:R:1 pbc="T T T"
Si       0.18219550      -0.70079580       2.18851329       0.00000000
Si      -1.31187184      -1.44197451      -1.37370998       0.00000000
Si      -1.41537850       1.92318111      -0.03720752       0.00000000
Si       2.23463125       0.70191981      -0.49374174       0.00000000
Si      -1.81037842      -1.91565513       2.15209962       0.00000000
Si       2.16336250       2.36944566       1.22470732       0.00000000
Si       1.59138802       1.54070820      -2.62468347       0.00000000
Si       0.30615100       3.42200772       0.33541994       0.00000000
Si      -1.99101823       1.77129315      -2.29644271       0.00000000
Si      -2.29692814      -3.01306356       0.05325715       0.00000000
