10
Lattice="16.28999089631971 0.0 0.0 0.0 16.28999089631971 0.0 0.0 0.0 34.51530692428229" Properties=species:S:1:pos:R:3:initial_magmoms:R:1 pbc="T T T"
Si       1.46390932      -1.79191629      -0.76724119       0.00000000
Si       1.07617637       2.05109019      -0.77052014       0.00000000
Si      -1.95066431      -0.59798961      -1.39521303       0.00000000
Si       0.39235475      -0.13369203       2.74583226       0.00000000
Si      -3.29069600      -0.36139365       0.64353826       0.00000000
Si       1.47137503      -3.14180343       1.13596842       0.00000000
Si       3.29560253       1.57494978       0.05594934       0.00000000
Si       3.44406959      -0.64439982      -1.24776356       0.00000000
Si       0.23650669       3.82239963       0.69707153       0.00000000
Si      -2.19146309      -2.93891148      -1.69622119       0.00000000
