10
Lattice="16.28999089631971 0.0 0.0 0.0 16.28999089631971 0.0 0.0 0.0 34.51530692428229" Properties=species:S:1:pos:R:3:initial_magmoms:R:1 pbc="T T T"
Si       1.25247294       1.88033841      -0.68388667       0.00000000
Si      -2.21942616       0.47614041      -0.82646949       0.00000000
Si       0.14846706      -2.21934960      -1.30371290       0.00000000
Si      -0.06314004       0.67846221       2.63945603       0.00000000
Si       1.88783181      -1.03364937       2.82628749       0.00000000
Si      -3.29560253      -1.57494978      -0.05594934       0.00000000
Si       3.54325419       1.36161594      -0.19093878       0.00000000
Si      -3.05909584       2.24744985       0.64112218       0.00000000
Si       0.97974576       2.08612998      -3.08591177       0.00000000
Si      -1.83169321      -3.36686607      -0.82319053       0.00000000
