10
Lattice="16.28999089631971 0.0 0.0 0.0 16.28999089631971 0.0 0.0 0.0 34.51530692428229" Properties=species:S:1:pos:R:3:initial_magmoms:R:1 pbc="T T T"
Si      -1.36187749      -1.34656398       1.38654968       0.00000000
Si       1.35035931       1.37233476       1.38741257       0.00000000
Si      -1.33726330       1.29443598      -1.49908691       0.00000000
Si       1.43138088      -1.40478444      -1.54442624       0.00000000
Si       0.46547347       2.21617305      -2.69576575       0.00000000
Si      -2.70604684       2.71681362       0.01351620       0.00000000
Si       2.71849776      -2.70607851       0.01045124       0.00000000
Si      -2.71722178      -2.70918990      -0.00424193       0.00000000
Si       2.72092497       2.71117728       0.00447319       0.00000000
Si      -0.00812198      -2.70449838       2.74835188       0.00000000
