10
Lattice="10.86 0.0 0.0 0.0 10.86 0.0 0.0 0.0 10.86" Properties=species:S:1:pos:R:3:initial_magmoms:R:1 pbc="T T T"
Si      -1.00058610      -1.22834202       1.43761422       0.00000000
Si      -1.00058610       1.48665798      -1.27738578       0.00000000
Si       1.61135250       1.14063666       1.44165414       0.00000000
Si       1.71441390      -1.22834202      -1.27738578       0.00000000
Si      -2.35808610      -2.58584202       0.08011422       0.00000000
Si      -2.35808610       0.12915798      -2.63488578       0.00000000
Si      -2.17226064       2.97417390      -0.16241130       0.00000000
Si       0.35691390      -2.58584202      -2.63488578       0.00000000
Si       0.35691390      -2.58584202       2.79511422       0.00000000
Si       0.35691390       2.84415798      -2.63488578       0.00000000
