10
Lattice="16.28999089631971 0.0 0.0 0.0 16.28999089631971 0.0 0.0 0.0 34.395419527814205" Properties=species:S:1:pos:R:3:initial_magmoms:R:1 pbc="T T T"
Si      -0.71115298       0.57278898       2.17045537       0.00000000
Si      -1.43110093       1.49149611      -1.16531746       0.00000000
Si       2.34646047       0.35518716      -0.25146505       0.00000000
Si      -0.78740484      -2.28527523      -0.11168199       0.00000000
Si      -3.38339132       0.15975603      -1.35397645       0.00000000
Si      -2.79643004      -2.06454573      -1.30571965       0.00000000
Si      -0.47945054      -3.15802827       2.04697575       0.00000000
Si      -1.37497048      -1.41405345       3.26226978       0.00000000
Si      -0.40628563       2.33389829      -3.05744495       0.00000000
Si      -2.88646487       1.43272179       2.15865774       0.00000000
