10
Lattice="16.28999089631971 0.0 0.0 0.0 16.28999089631971 0.0 0.0 0.0 34.395419527814205" Properties=species:S:1:pos:R:3:initial_magmoms:R:1 pbc="T T T"
Si       1.35456237      -1.35706518       1.35841346       0.00000000
Si       1.35694071       1.35675826      -1.35659050       0.00000000
Si      -1.35806472      -1.35773399      -1.35659050       0.00000000
Si      -1.35948195       1.35600892       1.35803511       0.00000000
Si       2.70703962      -0.00632867       2.69409153       0.00000000
Si      -0.00053757       2.71433428      -2.71373133       0.00000000
Si       2.71461447      -0.00032906      -2.71376572       0.00000000
Si      -2.71438478      -2.71415250       0.00072230       0.00000000
Si      -2.71471547       2.71389445       0.00068791       0.00000000
Si      -2.71506082      -0.00046752      -2.71376572       0.00000000
