10
Lattice="16.28999089631971 0.0 0.0 0.0 16.28999089631971 0.0 0.0 0.0 34.395419527814205" Properties=species:S:1:pos:R:3:initial_magmoms:R:1 pbc="T T T"
Si      -0.70540587       1.85388345       1.28408491       0.00000000
Si      -1.62168579      -1.06919415      -1.40182050       0.00000000
Si       1.21116150       1.66887792      -1.35445798       0.00000000
Si       1.85966640      -1.63317024      -0.06321882       0.00000000
Si      -0.62529165      -1.56237390       2.09867209       0.00000000
Si       1.61052714      -2.41626149       2.15769466       0.00000000
Si      -0.29315484      -2.41674042      -2.76202252       0.00000000
Si       2.43543645       0.30520944      -2.76140340       0.00000000
Si      -3.06652734      -2.29990202       0.12574972       0.00000000
Si       1.14569199       3.48097752       1.36907604       0.00000000
