10
Lattice="16.28999089631971 0.0 0.0 0.0 16.28999089631971 0.0 0.0 0.0 34.395419527814205" Properties=species:S:1:pos:R:3:initial_magmoms:R:1 pbc="T T T"
Si       1.35658233       1.35747828      -1.35745039       0.00000000
Si      -1.35843939      -1.35773892      -1.35755357       0.00000000
Si      -1.35783666       1.35630540       1.35968609       0.00000000
Si       1.35769005      -1.35856971       1.36003004       0.00000000
Si       2.71375110      -2.71494027      -0.00110065       0.00000000
Si       2.71414206      -0.00011403      -2.71521033       0.00000000
Si      -0.00076563       2.71479366      -2.71510714       0.00000000
Si       2.71489140       2.71529865      -0.00113505       0.00000000
Si      -0.00100998      -2.71529865      -2.71500396       0.00000000
Si      -2.71518788      -2.71573848      -0.00058472       0.00000000
