10
Lattice="16.28999089631971 0.0 0.0 0.0 16.28999089631971 0.0 0.0 0.0 34.395419527814205" Properties=species:S:1:pos:R:3:initial_magmoms:R:1 pbc="T T T"
Si      -1.31457042       1.38326535       1.37423536       0.00000000
Si       1.34889345       1.35883035      -1.36721869       0.00000000
Si      -1.36575360      -1.35609363      -1.36649639       0.00000000
Si       1.48743990      -1.34786718       1.37385701       0.00000000
Si       0.49614453       2.22964488       2.77660619       0.00000000
Si      -2.36056761      -0.05657517       2.86620631       0.00000000
Si       2.71171485      -2.71153566      -0.03308841       0.00000000
Si       2.71547784       2.71031391       0.01004347       0.00000000
Si       2.70668124       0.00293220      -2.72831499       0.00000000
Si      -2.73513987      -2.70477531       0.01007786       0.00000000
