10
Lattice="16.28999089631971 0.0 0.0 0.0 16.28999089631971 0.0 0.0 0.0 34.395419527814205" Properties=species:S:1:pos:R:3:initial_magmoms:R:1 pbc="T T T"
Si       1.04599719       1.43984052      -1.49197095       0.00000000
Si      -1.23608520       1.78945650       1.12958060       0.00000000
Si       1.93144014      -1.10628648       1.14619360       0.00000000
Si      -1.72869480      -1.28412441      -1.32745756       0.00000000
Si       2.85671214       2.28622005      -0.08960012       0.00000000
Si       2.36056761       0.05657517      -2.86620631       0.00000000
Si      -0.37457226      -2.64820014      -2.85612844       0.00000000
Si       2.63684601      -2.96016993      -0.13789131       0.00000000
Si       3.78253800       0.52080759       1.23118473       0.00000000
Si      -0.36281088       2.78231571      -2.86968025       0.00000000
