10
Lattice="16.28999089631971 0.0 0.0 0.0 16.28999089631971 0.0 0.0 0.0 34.395419527814205" Properties=species:S:1:pos:R:3:initial_magmoms:R:1 pbc="T T T"
Si       0.70540587      -1.85388345      -1.28408491       0.00000000
Si       1.85109786       1.62709407       0.08499113       0.00000000
Si      -1.93144014       1.10628648      -1.14619360       0.00000000
Si       1.91656737      -0.18500553      -2.63854290       0.00000000
Si      -0.84621663      -2.02693212       2.43963408       0.00000000
Si       0.08011422      -3.41625735       0.81458718       0.00000000
Si      -0.54115380       1.22881986       3.45127272       0.00000000
Si       0.92527200       3.39250653      -1.23579372       0.00000000
Si      -0.88544295       2.54612700      -2.63816455       0.00000000
Si      -2.98077678      -1.48416561       1.83437754       0.00000000
