10
Lattice="16.28999089631971 0.0 0.0 0.0 16.28999089631971 0.0 0.0 0.0 34.395419527814205" Properties=species:S:1:pos:R:3:initial_magmoms:R:1 pbc="T T T"
Si       1.40721165       1.81465713       0.14150284       0.00000000
Si      -1.67979222      -0.21566331       1.56970464       0.00000000
Si       1.15948962      -2.17261359       0.58076698       0.00000000
Si      -0.49713822      -2.05640073       2.42164526       0.00000000
Si      -3.29308866      -0.87324174      -0.02548702       0.00000000
Si       1.74436578       1.61148825       2.45253236       0.00000000
Si      -0.30506283      -3.25575198      -1.01163864       0.00000000
Si       3.33283626      -1.04821263       0.07408778       0.00000000
Si       3.17611017       0.95547366      -1.17897245       0.00000000
Si       0.54115380      -1.22881986      -3.45127272       0.00000000
