10
Lattice="16.28999089631971 0.0 0.0 0.0 16.28999089631971 0.0 0.0 0.0 34.395419527814205" Properties=species:S:1:pos:R:3:initial_magmoms:R:1 pbc="T T T"
Si      -0.80008335       2.00288808      -0.87061735       0.00000000
Si       0.74287287      -0.08009793       2.20319983       0.00000000
Si       2.09878731      -0.15118749      -1.14997710       0.00000000
Si      -1.74803103      -1.56989988      -0.48628271       0.00000000
Si      -0.08645103      -2.29462569       2.68879463       0.00000000
Si      -0.49436892      -2.68353315      -2.27346971       0.00000000
Si       1.36184400      -1.37963268      -3.02851838       0.00000000
Si       1.03635351       3.43349217      -0.58713014       0.00000000
Si      -1.37394747       1.46875527      -3.12571989       0.00000000
Si      -2.34976734      -2.29017852       1.76844148       0.00000000
