10
Lattice="16.28999089631971 0.0 0.0 0.0 16.28999089631971 0.0 0.0 0.0 34.395419527814205" Properties=species:S:1:pos:R:3:initial_magmoms:R:1 pbc="T T T"
Si      -1.40721165      -1.81465713      -0.14150284       0.00000000
Si       0.33715413      -0.20316888       2.31102953       0.00000000
Si      -1.04431932       2.10491235      -0.19577884       0.00000000
Si       1.76889852      -0.85918347      -1.32047529       0.00000000
Si       1.92562461      -2.86286976      -0.06741506       0.00000000
Si       0.57937014       3.09705480      -1.72169808       0.00000000
Si       1.80734292       1.55440809       2.72291491       0.00000000
Si      -1.54279332       2.71803537       2.03201373       0.00000000
Si      -1.53297045       0.77691897       3.35039090       0.00000000
Si       3.68828406       0.58572324      -0.83694421       0.00000000
