10
Lattice="16.28999089631971 0.0 0.0 0.0 16.28999089631971 0.0 0.0 0.0 34.395419527814205" Properties=species:S:1:pos:R:3:initial_magmoms:R:1 pbc="T T T"
Si      -0.33555771      -1.19953044       2.01079174       0.00000000
Si       0.01510083      -1.19389410      -2.05206627       0.00000000
Si       1.75335786       1.57597605      -0.37384402       0.00000000
Si      -2.15893488       1.01071305       0.16344712       0.00000000
Si      -2.07063493      -2.47907084       1.02391782       0.00000000
Si       0.57070386       3.41671347      -1.22578465       0.00000000
Si      -1.94414634       2.13421806       2.29379741       0.00000000
Si      -3.62127419      -0.85216248       0.33136566       0.00000000
Si       1.63180188      -2.98518811      -1.64716317       0.00000000
Si      -1.51365051       0.16324209       3.54482831       0.00000000
