10
Lattice="16.28999089631971 0.0 0.0 0.0 16.28999089631971 0.0 0.0 0.0 34.395419527814205" Properties=species:S:1:pos:R:3:initial_magmoms:R:1 pbc="T T T"
Si      -1.18102500      -1.62422703      -1.12751688       0.00000000
Si      -0.86631849       0.34166646       2.14706647       0.00000000
Si       2.06324253      -1.12190859      -0.05166195       0.00000000
Si       0.42774282       1.97012889      -1.20727990       0.00000000
Si      -0.97192656      -2.08974636       2.36124687       0.00000000
Si      -0.10150299       3.48731433       0.53271656       0.00000000
Si      -0.64252647      -3.49653447       0.21438677       0.00000000
Si       0.58497390       2.37956175       2.60407867       0.00000000
Si      -0.34422399      -1.38228795      -3.35630691       0.00000000
Si       3.03391476      -0.92378961       2.04835156       0.00000000
