10
Lattice="16.28999089631971 0.0 0.0 0.0 16.28999089631971 0.0 0.0 0.0 34.395419527814205" Properties=species:S:1:pos:R:3:initial_magmoms:R:1 pbc="T T T"
Si      -2.24327961       0.87575040       0.15639606       0.00000000
Si       0.20566125      -2.42760096      -0.39933104       0.00000000
Si       0.75018708      -1.01840193       2.22149820       0.00000000
Si       0.91388529       1.34293131      -2.18080840       0.00000000
Si       2.45796552      -2.35476837      -1.04039323       0.00000000
Si       3.58691139      -0.35780985      -0.51311116       0.00000000
Si      -0.76501098      -2.62571994      -2.49934456       0.00000000
Si      -3.69457200      -1.16214489      -0.30061613       0.00000000
Si      -2.92975650       1.98350298      -1.91496605       0.00000000
Si      -2.82825351      -1.50381135      -2.44768261       0.00000000
