10
Lattice="16.28999089631971 0.0 0.0 0.0 16.28999089631971 0.0 0.0 0.0 34.395419527814205" Properties=species:S:1:pos:R:3:initial_magmoms:R:1 pbc="T T T"
Si       2.24327961      -0.87575040      -0.15639606       0.00000000
Si      -0.68647689       1.10775258      -2.07136211       0.00000000
Si      -0.48425283       1.51253043       1.93563771       0.00000000
Si      -1.45129239      -2.03789529      -0.45701219       0.00000000
Si      -0.58497390      -2.37956175      -2.60407867       0.00000000
Si      -1.48180356      -0.16296516       3.44374497       0.00000000
Si      -0.15723108      -0.40943286      -3.81135857       0.00000000
Si       0.57876741       3.06565487      -2.26122493       0.00000000
Si       3.15716490       0.46718091      -2.33720446       0.00000000
Si      -3.01726638       1.57096266      -2.02296773       0.00000000
