10
Lattice="16.28999089631971 0.0 0.0 0.0 16.28999089631971 0.0 0.0 0.0 34.395419527814205" Properties=species:S:1:pos:R:3:initial_magmoms:R:1 pbc="T T T"
Si       1.36270737       1.35842310       1.33602203       0.00000000
Si      -1.36588392      -1.36352676       1.33540291       0.00000000
Si       1.35617508      -1.35730723      -1.35782874       0.00000000
Si      -1.35870003       1.35749457      -1.35851664       0.00000000
Si      -0.01014867      -2.55031190       2.77192841       0.00000000
Si      -2.69441487      -0.01598049       2.69560493       0.00000000
Si       2.71046052       2.71534752      -0.00075670       0.00000000
Si      -2.71476108       2.71386513       0.00261405       0.00000000
Si       2.71355562       0.00053757      -2.71517593       0.00000000
Si      -0.00146610      -2.71478546      -2.71521033       0.00000000
