10
Lattice="16.28999089631971 0.0 0.0 0.0 16.28999089631971 0.0 0.0 0.0 34.395419527814205" Properties=species:S:1:pos:R:3:initial_magmoms:R:1 pbc="T T T"
Si       1.35832536       1.35785295       1.35586820       0.00000000
Si       1.35695700      -1.35762489      -1.35755357       0.00000000
Si      -1.35804843      -1.35754344       1.35655610       0.00000000
Si      -1.35765747       1.35728280      -1.35755357       0.00000000
Si       2.71111212       0.00030951       2.71431605       0.00000000
Si       2.71420722      -2.71450044      -0.00010319       0.00000000
Si      -0.00143352      -2.71520091      -2.71355935       0.00000000
Si       2.71425609      -0.00127062      -2.71538231       0.00000000
Si       2.71461447       2.71513575      -0.00030956       0.00000000
Si      -2.71564074      -0.00162900      -2.71421286       0.00000000
