10
Lattice="16.28999089631971 0.0 0.0 0.0 16.28999089631971 0.0 0.0 0.0 34.395419527814205" Properties=species:S:1:pos:R:3:initial_magmoms:R:1 pbc="T T T"
Si       1.36738260       1.35050616       1.34434572       0.00000000
Si      -1.35581670       1.35902583      -1.36030521       0.00000000
Si       1.35902583      -1.35580041      -1.36133707       0.00000000
Si      -1.34728074      -1.36373364       1.37671183       0.00000000
Si      -2.71252935       2.71226871       0.00316438       0.00000000
Si       2.71191033      -2.71505430      -0.00206373       0.00000000
Si      -2.71386513      -2.71521720      -0.00055033       0.00000000
Si      -2.71406061       0.00061902      -2.71720527       0.00000000
Si       2.71503801       2.71652040      -0.00302680       0.00000000
Si       0.00021177      -2.71383255      -2.71782438       0.00000000
