10
Lattice="16.28999089631971 0.0 0.0 0.0 16.28999089631971 0.0 0.0 0.0 34.395419527814205" Properties=species:S:1:pos:R:3:initial_magmoms:R:1 pbc="T T T"
Si      -1.89185544       0.62221284       1.20858693       0.00000000
Si       0.84066174      -2.03825367       0.79188619       0.00000000
Si       1.36702422       1.75003470       0.76258127       0.00000000
Si      -0.01091430      -0.34647201      -2.35127219       0.00000000
Si       2.41277706      -0.74759697      -2.44152582       0.00000000
Si       0.31684050       3.54744072      -0.55201240       0.00000000
Si      -3.36204423      -1.13536413       0.79670155       0.00000000
Si      -1.12365162       0.53760258       3.42392835       0.00000000
Si       2.51476875      -2.58434334      -0.86521726       0.00000000
Si       0.69540381       2.06977482       3.05675704       0.00000000
