10
Lattice="16.28999089631971 0.0 0.0 0.0 16.28999089631971 0.0 0.0 0.0 34.395419527814205" Properties=species:S:1:pos:R:3:initial_magmoms:R:1 pbc="T T T"
Si       1.83772377      -0.25313031       1.41846789       0.00000000
Si      -1.81905543      -1.53217224       0.36717131       0.00000000
Si      -0.49536261       2.23374996       0.75047408       0.00000000
Si       0.67162041      -0.31974012      -2.29417576       0.00000000
Si      -2.58725925      -1.44756198      -1.84817011       0.00000000
Si       1.20425454       3.42231723      -0.39255514       0.00000000
Si       0.99693171       0.39301254       3.53829318       0.00000000
Si       2.44465659      -2.47321296       1.33743224       0.00000000
Si      -0.69540381      -2.06977482      -3.05675704       0.00000000
Si      -3.51727164      -0.26031420       1.31789563       0.00000000
