10
Lattice="16.28999089631971 0.0 0.0 0.0 16.28999089631971 0.0 0.0 0.0 34.395419527814205" Properties=species:S:1:pos:R:3:initial_magmoms:R:1 pbc="T T T"
Si       1.35681039       1.35633798      -1.35710643       0.00000000
Si      -1.35671265       1.35324288       1.36346959       0.00000000
Si      -1.35824391      -1.35840681      -1.35690006       0.00000000
Si       1.35581670      -1.35902583       1.36030521       0.00000000
Si       2.72319930      -0.00851967       2.70465093       0.00000000
Si       2.71365336      -0.00034209      -2.71462561       0.00000000
Si      -0.00112401       2.71427238      -2.71483198       0.00000000
Si       2.71490769       2.71441899      -0.00020637       0.00000000
Si       2.71484253      -2.71482624      -0.00103186       0.00000000
Si      -0.00144981      -2.71551042      -2.71472879       0.00000000
