10
Lattice="16.28999089631971 0.0 0.0 0.0 16.28999089631971 0.0 0.0 0.0 34.395419527814205" Properties=species:S:1:pos:R:3:initial_magmoms:R:1 pbc="T T T"
Si       0.00770517       2.37665466       0.25456064       0.00000000
Si      -0.98256393      -1.20402648       1.88115534       0.00000000
Si       2.45829132      -0.35891757       0.07577315       0.00000000
Si      -1.79431092      -0.09252720      -1.72348664       0.00000000
Si      -0.54024156       1.18939059      -3.22863104       0.00000000
Si      -3.29141079       1.15835162      -0.29009113       0.00000000
Si       0.25684443       3.15974591      -1.96635284       0.00000000
Si      -3.21600438      -0.15900669       2.02554739       0.00000000
Si      -0.86279985      -3.50265951       1.25202837       0.00000000
Si      -2.22811362       3.23054225       0.19553807       0.00000000
