10
Lattice="16.28999089631971 0.0 0.0 0.0 16.28999089631971 0.0 0.0 0.0 34.395419527814205" Properties=species:S:1:pos:R:3:initial_magmoms:R:1 pbc="T T T"
Si      -1.52883279       0.11679930       1.73690087       0.00000000
Si       1.55063925      -1.62690836       0.69255216       0.00000000
Si      -1.46134332      -0.79974615      -1.68169619       0.00000000
Si       1.46233931       1.86287553      -0.16791853       0.00000000
Si       0.04523802      -0.24992118       3.47469601       0.00000000
Si       0.52582395      -2.46931055       2.58467964       0.00000000
Si       0.61553298       2.97124713      -2.05055287       0.00000000
Si       1.81683089      -2.94346358      -1.21102900       0.00000000
Si       3.28571648      -0.34736796       1.67942609       0.00000000
Si       3.62127419       0.85216248      -0.33136566       0.00000000
