10
Lattice="16.28999089631971 0.0 0.0 0.0 16.28999089631971 0.0 0.0 0.0 34.395419527814205" Properties=species:S:1:pos:R:3:initial_magmoms:R:1 pbc="T T T"
Si      -0.47540736      -0.14890526       2.27587739       0.00000000
Si       0.03508866      -2.31941648      -0.38897802       0.00000000
Si       1.91840814       1.36389002       0.15474508       0.00000000
Si      -1.83343950       0.86976545      -1.24549323       0.00000000
Si       0.37009251       3.10664309      -0.09066638       0.00000000
Si       2.02077450      -2.55395990       0.81386487       0.00000000
Si      -2.93169501       1.76736074       0.60611642       0.00000000
Si       0.90414387      -2.01094904       2.78272858       0.00000000
Si      -1.90790109      -0.74402620      -2.95573763       0.00000000
Si      -2.80979694       0.11464902       2.28819096       0.00000000
