10
Lattice="16.28999089631971 0.0 0.0 0.0 16.28999089631971 0.0 0.0 0.0 34.395419527814205" Properties=species:S:1:pos:R:3:initial_magmoms:R:1 pbc="T T T"
Si      -1.35692346      -1.35024552      -1.37451052       0.00000000
Si      -1.35708636       1.31549895       1.42214821       0.00000000
Si       1.35654160       1.36534635      -1.37574876       0.00000000
Si       1.34855950      -1.33413471       1.52984032       0.00000000
Si       2.70268204      -2.69821044       0.00116944       0.00000000
Si      -2.71625880      -2.71241532       0.02490230       0.00000000
Si      -2.71513479       2.72153772       0.00295801       0.00000000
Si      -0.00080961      -2.70669753      -2.73601957       0.00000000
Si       2.71444342       2.73230541      -0.01238236       0.00000000
Si       2.71437826       0.00904095      -2.73543485       0.00000000
