10
Lattice="16.28999089631971 0.0 0.0 0.0 16.28999089631971 0.0 0.0 0.0 34.395419527814205" Properties=species:S:1:pos:R:3:initial_magmoms:R:1 pbc="T T T"
Si       1.15476389      -1.63960479       1.22984331       0.00000000
Si      -1.45144782       1.14391638       1.52471540       0.00000000
Si       1.39769666       1.23900111      -1.50562594       0.00000000
Si      -1.27789853      -1.49045355      -1.45778188       0.00000000
Si       2.07705482      -0.06732657       2.80240277       0.00000000
Si      -2.64819267       2.78801721       0.00646634       0.00000000
Si       2.69671013      -2.73694643      -0.19030996       0.00000000
Si       0.04913716       2.57313582      -3.03546626       0.00000000
Si       3.12639146       2.52312552      -0.17816837       0.00000000
Si      -2.08628541      -3.43621423      -0.15897572       0.00000000
