10
Lattice="16.28999089631971 0.0 0.0 0.0 16.28999089631971 0.0 0.0 0.0 34.395419527814205" Properties=species:S:1:pos:R:3:initial_magmoms:R:1 pbc="T T T"
Si       1.35611385      -1.35645201      -1.36150905       0.00000000
Si      -1.35936792       1.36073628      -1.36140586       0.00000000
Si       1.35692346       1.35024552       1.37451052       0.00000000
Si      -1.35933534      -1.36216980       1.39941282       0.00000000
Si       2.71134737      -2.71433754      -0.00416185       0.00000000
Si       2.71346507       2.71559187      -0.00123824       0.00000000
Si      -2.71800279      -2.71327869       0.00251087       0.00000000
Si       2.71286234       0.00154755      -2.71847790       0.00000000
Si      -0.00162908      -2.71347417      -2.71858108       0.00000000
Si      -0.00224189       2.71663443      -2.71875306       0.00000000
