10
Lattice="16.28999089631971 0.0 0.0 0.0 16.28999089631971 0.0 0.0 0.0 34.395419527814205" Properties=species:S:1:pos:R:3:initial_magmoms:R:1 pbc="T T T"
Si       1.88489961      -0.21597282       1.36921363       0.00000000
Si      -1.67410701       0.54608967       1.65710345       0.00000000
Si      -0.10199169       1.83674637      -1.57630856       0.00000000
Si       0.13007565      -2.13566787      -1.14977073       0.00000000
Si      -2.52568305       2.23787133      -1.48605493       0.00000000
Si       0.92077596      -0.88063740       3.47930500       0.00000000
Si      -2.51476875       2.58434334       0.86521726       0.00000000
Si      -3.21918093      -1.26405513       1.44663776       0.00000000
Si       3.41257485      -1.67580117       0.28568851       0.00000000
Si       2.64697839       1.91158263       2.06217853       0.00000000
