10
Lattice="16.28999089631971 0.0 0.0 0.0 16.28999089631971 0.0 0.0 0.0 34.395419527814205" Properties=species:S:1:pos:R:3:initial_magmoms:R:1 pbc="T T T"
Si       1.96314862       0.64005039      -1.10178909       0.00000000
Si       0.84680633      -1.10837160       1.88263434       0.00000000
Si      -1.52767524       1.45982835       1.08352511       0.00000000
Si      -1.05334302      -1.11428487      -1.85498041       0.00000000
Si      -3.28249920      -0.45986670      -1.43545924       0.00000000
Si      -0.61553298      -2.97124713       2.05055287       0.00000000
Si      -3.41257485       1.67580117      -0.28568851       0.00000000
Si       3.57644506       1.29762882       0.49340257       0.00000000
Si       1.51038437       2.51457327      -2.52235511       0.00000000
Si      -0.70551894       2.23181145      -3.16572179       0.00000000
