10
Lattice="16.28999089631971 0.0 0.0 0.0 16.28999089631971 0.0 0.0 0.0 34.395419527814205" Properties=species:S:1:pos:R:3:initial_magmoms:R:1 pbc="T T T"
Si      -1.35632006      -1.35641851       1.35731280       0.00000000
Si      -1.35699610       1.35726647      -1.35717522       0.00000000
Si       1.35765747      -1.35718414      -1.35734720       0.00000000
Si       1.35806472       1.35773399       1.35659050       0.00000000
Si       2.71262709       0.00066881       2.71500396       0.00000000
Si      -2.71502973      -0.00019362      -2.71294023       0.00000000
Si      -0.00141723       2.71374291       2.71462561       0.00000000
Si      -0.00083079       2.71418274      -2.71448803       0.00000000
Si      -2.71439367       2.71460628       0.00020637       0.00000000
Si       2.71430496       0.00164553      -2.71472879       0.00000000
