10
Lattice="16.28999089631971 0.0 0.0 0.0 16.28999089631971 0.0 0.0 0.0 34.395419527814205" Properties=species:S:1:pos:R:3:initial_magmoms:R:1 pbc="T T T"
Si      -2.20796289      -0.85033800       0.07429415       0.00000000
Si       0.15266988       0.69607170      -2.27635893       0.00000000
Si       1.71374058      -1.68868656      -0.06476661       0.00000000
Si       0.55021104       1.49183820       1.86529904       0.00000000
Si       2.91464982       1.19871594       1.77236256       0.00000000
Si      -0.45426294       2.91615435      -2.19532327       0.00000000
Si       3.70802007      -0.46231020       0.25511097       0.00000000
Si      -1.29505500       3.56229720      -0.07549799       0.00000000
Si       2.04610545      -2.16318168      -2.41215212       0.00000000
Si       2.27450754       0.10625967      -3.09555509       0.00000000
