10
Lattice="16.28999089631971 0.0 0.0 0.0 16.28999089631971 0.0 0.0 0.0 34.395419527814205" Properties=species:S:1:pos:R:3:initial_magmoms:R:1 pbc="T T T"
Si      -1.35738054       1.35606105      -1.35741599       0.00000000
Si      -1.35682668      -1.35723393       1.35714083       0.00000000
Si       1.35827649       1.35716877       1.35717522       0.00000000
Si       1.35993807      -1.35604476      -1.35917016       0.00000000
Si       0.01938510       2.70593799      -2.71647952       0.00000000
Si       2.70849886      -0.01210347      -2.71466000       0.00000000
Si      -2.71366965      -0.00055386       2.71466000       0.00000000
Si      -2.71383255       2.71452714      -0.00130703       0.00000000
Si      -2.71412577      -2.71448415       0.00013758       0.00000000
Si       0.00122175       2.71436935       2.71424726       0.00000000
