10
Lattice="16.28999089631971 0.0 0.0 0.0 16.28999089631971 0.0 0.0 0.0 34.395419527814205" Properties=species:S:1:pos:R:3:initial_magmoms:R:1 pbc="T T T"
Si       2.13456015      -0.54276651       0.60525654       0.00000000
Si      -0.92229093      -1.57227822      -1.57255946       0.00000000
Si      -0.85346568       1.83974373       1.59140816       0.00000000
Si       0.20422773      -2.11328541       2.36031819       0.00000000
Si      -2.07705482       0.06732657      -2.80240277       0.00000000
Si       3.06089100      -1.93209174      -1.01979036       0.00000000
Si       2.98077678       1.48416561      -1.83437754       0.00000000
Si      -1.30622994       3.71426661       0.17084214       0.00000000
Si      -3.52850264       1.21124295      -1.27768736       0.00000000
Si      -3.86995733       0.08540847       0.83821684       0.00000000
