10
Lattice="16.28999089631971 0.0 0.0 0.0 16.28999089631971 0.0 0.0 0.0 34.395419527814205" Properties=species:S:1:pos:R:3:initial_magmoms:R:1 pbc="T T T"
Si       0.44571069       1.09033857      -2.06579005       0.00000000
Si      -1.28581857       1.64804301       1.15867915       0.00000000
Si      -1.58228028      -1.82001654      -0.14735006       0.00000000
Si       2.11251978      -0.76893687       0.89469415       0.00000000
Si      -3.30932069       1.43174439      -0.00581283       0.00000000
Si      -3.53772278      -0.83769696       0.67759014       0.00000000
Si       2.48660334       2.26971828      -1.74474303       0.00000000
Si       1.51078347      -1.48921551       3.14941835       0.00000000
Si       0.93256992      -0.53752113      -3.66693212       0.00000000
Si      -0.70405380       3.76140987       0.36101453       0.00000000
