10
Lattice="16.28999089631971 0.0 0.0 0.0 16.28999089631971 0.0 0.0 0.0 34.395419527814205" Properties=species:S:1:pos:R:3:initial_magmoms:R:1 pbc="T T T"
Si      -1.92922307       0.90741816      -1.00603219       0.00000000
Si       1.45736856      -1.44497187      -1.20146707       0.00000000
Si       1.01336832       2.11095594       0.52012782       0.00000000
Si      -1.28309814      -1.17040392       1.76293821       0.00000000
Si       0.21711312      -3.50402787      -1.30159219       0.00000000
Si      -2.72259331       2.56844430       0.51121941       0.00000000
Si      -1.78518200       0.58762917       3.33054473       0.00000000
Si      -1.33923348       1.69228665      -3.19220627       0.00000000
Si       3.72068487      -1.44941904      -0.28111392       0.00000000
Si       3.33589878       2.17103346       0.63892967       0.00000000
