10
Lattice="16.28999089631971 0.0 0.0 0.0 16.28999089631971 0.0 0.0 0.0 34.395419527814205" Properties=species:S:1:pos:R:3:initial_magmoms:R:1 pbc="T T T"
Si      -1.35542978       1.35811484      -1.36071795       0.00000000
Si       1.35969850      -1.35596762      -1.36092433       0.00000000
Si      -1.35749861      -1.36263023       1.36931681       0.00000000
Si       1.35969850       1.37173328       1.37674623       0.00000000
Si       2.71381941      -2.71320155      -0.00099747       0.00000000
Si      -2.71419497      -2.71408121      -0.00354273       0.00000000
Si       2.71460133       2.71419381      -0.00361152       0.00000000
Si      -2.71474883       2.71525266       0.00306119       0.00000000
Si      -2.71334789      -0.00031459      -2.71834032       0.00000000
Si       0.00090356      -2.71424411      -2.71782438       0.00000000
