10
Lattice="16.28999089631971 0.0 0.0 0.0 16.28999089631971 0.0 0.0 0.0 34.395419527814205" Properties=species:S:1:pos:R:3:initial_magmoms:R:1 pbc="T T T"
Si       0.58176477       2.11336686      -0.79766462       0.00000000
Si      -2.02350212      -0.21629862      -1.16449197       0.00000000
Si       1.28581857      -1.64804301      -1.15867915       0.00000000
Si      -0.58998959      -0.78486849       2.18617409       0.00000000
Si      -2.25190421      -2.48573997      -0.48108900       0.00000000
Si       2.65090428       2.53291581       0.14164042       0.00000000
Si      -0.80406951       3.58946892       0.36985415       0.00000000
Si       1.73152926      -0.55770444      -3.22446920       0.00000000
Si      -0.29646171      -3.46805955      -1.30602920       0.00000000
Si      -0.49611521       2.71671588       2.52851189       0.00000000
