10
Lattice="16.28999089631971 0.0 0.0 0.0 16.28999089631971 0.0 0.0 0.0 34.395419527814205" Properties=species:S:1:pos:R:3:initial_magmoms:R:1 pbc="T T T"
Si      -1.35523352       1.35788553      -1.35734720       0.00000000
Si       1.35948195      -1.35600892      -1.35803511       0.00000000
Si      -1.35490283      -1.34246053       1.38035775       0.00000000
Si       1.34825814       1.36637262       1.37984182       0.00000000
Si      -2.71134737       2.71433754       0.00416185       0.00000000
Si       2.71404432      -2.71307411       0.00037835       0.00000000
Si      -2.71297644       0.00086337      -2.71441924       0.00000000
Si       0.00141723      -2.71374291      -2.71462561       0.00000000
Si      -2.71460133      -2.71419381       0.00361152       0.00000000
Si       0.00151497       2.71588509      -2.71431605       0.00000000
