10
Lattice="16.28999089631971 0.0 0.0 0.0 16.28999089631971 0.0 0.0 0.0 34.395419527814205" Properties=species:S:1:pos:R:3:initial_magmoms:R:1 pbc="T T T"
Si      -1.35412091       1.35723393      -1.35992686       0.00000000
Si       1.35943308      -1.35904212      -1.35961730       0.00000000
Si      -1.37970924      -1.33107219       1.36900725       0.00000000
Si       1.36363590       1.35343836       1.38551706       0.00000000
Si       0.01141929      -2.62368369       2.67149373       0.00000000
Si      -2.71381941       2.71320155       0.00099747       0.00000000
Si      -2.71345352      -2.71458189       0.00251087       0.00000000
Si       2.71482624       2.71432125      -0.00223570       0.00000000
Si      -2.71291585      -0.00104256      -2.71682692       0.00000000
Si       0.00219915       2.71365244      -2.71723966       0.00000000
