10
Lattice="10.86 0.0 0.0 0.0 10.86 0.0 0.0 0.0 10.86" Properties=species:S:1:pos:R:3:initial_magmoms:R:1 pbc="T T T"
Si      -0.73395138      -1.66844352       1.65312006       0.00000000
Si      -1.02843114       1.58686320      -1.58087934       0.00000000
Si       1.68656886      -1.12813680      -1.58087934       0.00000000
Si       1.68656886       1.58686320       1.13412066       0.00000000
Si      -2.32778670       0.03967158       2.41446036       0.00000000
Si      -2.21116116      -2.59754910      -0.11788530       0.00000000
Si      -2.38593114       0.22936320      -2.93837934       0.00000000
Si      -2.38593114       2.94436320      -0.22337934       0.00000000
Si       0.32906886      -2.48563680      -2.93837934       0.00000000
Si       0.32906886       2.94436320       2.49162066       0.00000000
