10
Lattice="10.86 0.0 0.0 0.0 10.86 0.0 0.0 0.0 10.86" Properties=species:S:1:pos:R:3:initial_magmoms:R:1 pbc="T T T"
Si       0.98369880      -1.71094956      -0.96986316       0.00000000
Si      -1.73130120       1.00405044      -0.96986316       0.00000000
Si       0.98369880       1.00405044       1.74513684       0.00000000
Si       2.34119880      -0.35344956      -2.32736316       0.00000000
Si      -0.37380120       2.36155044      -2.32736316       0.00000000
Si       2.34119880       2.36155044       0.38763684       0.00000000
Si      -0.39910500       2.05193184       3.08195940       0.00000000
Si      -0.37380120      -3.06844956      -2.32736316       0.00000000
Si       2.34119880      -3.06844956       0.38763684       0.00000000
Si      -3.08880120      -0.35344956      -2.32736316       0.00000000
