10
Lattice="10.86 0.0 0.0 0.0 10.86 0.0 0.0 0.0 10.86" Properties=species:S:1:pos:R:3:initial_magmoms:R:1 pbc="T T T"
Si       1.56155940       1.01589870       1.52691600       0.00000000
Si      -1.15344060      -1.69910130       1.52691600       0.00000000
Si       1.56155940      -1.69910130      -1.18808400       0.00000000
Si       0.17875560       2.06378010      -2.56626144       0.00000000
Si      -2.53459368       2.37473448       0.15388620       0.00000000
Si       0.20405940       2.37339870       2.88441600       0.00000000
Si       2.91905940       2.37339870       0.16941600       0.00000000
Si      -2.73322308      -2.62871730      -0.13205760       0.00000000
Si      -2.51094060      -0.34160130       2.88441600       0.00000000
Si       2.91905940      -0.34160130      -2.54558400       0.00000000
