10
Lattice="16.28999089631971 0.0 0.0 0.0 16.28999089631971 0.0 0.0 0.0 34.383488856416385" Properties=species:S:1:pos:R:3:initial_magmoms:R:1 pbc="T T T"
Si       1.34332525       1.35203742       1.38740206       0.00000000
Si      -1.36908748      -1.36293217       1.38372302       0.00000000
Si      -1.33033357       1.40325318      -1.41633234       0.00000000
Si       1.37428277      -1.18473098      -1.65857447       0.00000000
Si      -0.55069417      -1.48962276      -3.25950984       0.00000000
Si       2.67662266      -2.71188494      -0.00277819       0.00000000
Si       2.70275182       2.71459818       0.00979242       0.00000000
Si      -2.71594468       2.71414206       0.01685823       0.00000000
Si       2.69924947      -0.00438201       2.74493172       0.00000000
Si      -2.73379852      -2.71791224       0.00539133       0.00000000
