10
Lattice="16.28999089631971 0.0 0.0 0.0 16.28999089631971 0.0 0.0 0.0 34.383488856416385" Properties=species:S:1:pos:R:3:initial_magmoms:R:1 pbc="T T T"
Si       1.94883786      -1.35382932      -0.02544380       0.00000000
Si      -1.82811430      -0.79285059       1.34345447       0.00000000
Si       0.78956001       1.87445772       1.45445131       0.00000000
Si      -1.15528680      -0.57340800      -2.15983444       0.00000000
Si      -0.23234427      -1.87582608       2.73359002       0.00000000
Si       1.12744719      -3.19903020       1.26648355       0.00000000
Si       2.61381195       0.32034285      -2.68624595       0.00000000
Si       2.48595174       0.86064957       2.74013320       0.00000000
Si       0.66088530      -0.60792651      -3.72545310       0.00000000
Si       2.09636010       3.25039257       0.13060476       0.00000000
