10
Lattice="16.28999089631971 0.0 0.0 0.0 16.28999089631971 0.0 0.0 0.0 34.383488856416385" Properties=species:S:1:pos:R:3:initial_magmoms:R:1 pbc="T T T"
Si      -1.35461124      -1.35401177       1.37047849       0.00000000
Si       1.36278882       1.35853713       1.37254151       0.00000000
Si       1.17760410      -1.59059470      -1.33694770       0.00000000
Si      -1.24199847       1.46056140      -1.46039825       0.00000000
Si       2.71788876       2.70506853      -0.00235183       0.00000000
Si      -2.71000440       2.71966437      -0.00324580       0.00000000
Si       2.70428661      -2.72857335       0.02806038       0.00000000
Si      -2.73613356      -2.70681875      -0.01581641       0.00000000
Si      -2.71350675       0.00068418       2.73189350       0.00000000
Si       0.00550602      -2.71434326       2.73264993       0.00000000
