10
Lattice="16.28999089631971 0.0 0.0 0.0 16.28999089631971 0.0 0.0 0.0 34.383488856416385" Properties=species:S:1:pos:R:3:initial_magmoms:R:1 pbc="T T T"
Si       1.01333574       0.80009964      -1.89683499       0.00000000
Si      -1.54476604      -1.73044109      -0.30793870       0.00000000
Si      -1.59112086       1.63414764       0.69306837       0.00000000
Si       2.12506308      -0.59689818       1.07286860       0.00000000
Si       2.58330078       2.40246549      -0.97955176       0.00000000
Si      -1.66545800       1.48672314       3.01931899       0.00000000
Si      -0.43725292      -3.80419460      -0.05360389       0.00000000
Si       1.75891275      -0.82525140       3.36752078       0.00000000
Si       0.51404724       1.10341944       3.71142463       0.00000000
Si      -0.89704795       3.80179278       0.12556857       0.00000000
