10
Lattice="16.28999089631971 0.0 0.0 0.0 16.28999089631971 0.0 0.0 0.0 34.383488856416385" Properties=species:S:1:pos:R:3:initial_magmoms:R:1 pbc="T T T"
Si       0.40576761      -0.78231096       2.16361663       0.00000000
Si       1.91544336       0.88335783      -1.06138451       0.00000000
Si      -1.67943384       1.62756648       0.44760451       0.00000000
Si      -0.52157322      -1.92184533      -1.40714507       0.00000000
Si       1.63981656      -2.67263514       1.52226105       0.00000000
Si      -3.47604165       0.29611962      -0.32922209       0.00000000
Si      -2.63111193      -1.07434179      -2.10932507       0.00000000
Si       1.35436689       0.51717492      -3.38075843       0.00000000
Si       3.78082755      -0.26479395      -0.19966503       0.00000000
Si      -1.58291559       2.03025528       2.82580861       0.00000000
