10
Lattice="16.28999089631971 0.0 0.0 0.0 16.28999089631971 0.0 0.0 0.0 34.383488856416385" Properties=species:S:1:pos:R:3:initial_magmoms:R:1 pbc="T T T"
Si      -1.35329175      -1.34881200       1.40172967       0.00000000
Si       1.36026387       1.36795275       1.39980419       0.00000000
Si      -1.46611629       1.39250178      -1.41687560       0.00000000
Si       1.51464420      -1.50395796      -1.60633561       0.00000000
Si      -2.70293454      -2.69778690       0.01669319       0.00000000
Si       2.72929176       2.71753038       0.02547818       0.00000000
Si       2.74383873      -2.70673011       0.01451328       0.00000000
Si      -2.71906164       2.73243573       0.04505271       0.00000000
Si       0.00158013      -2.70479160       2.76256015       0.00000000
Si      -2.71313208       0.00755856       2.76403864       0.00000000
