10
Lattice="16.28999089631971 0.0 0.0 0.0 16.28999089631971 0.0 0.0 0.0 34.383488856416385" Properties=species:S:1:pos:R:3:initial_magmoms:R:1 pbc="T T T"
Si       0.87426801       2.16083592       0.47700241       0.00000000
Si       1.96726185      -1.27573506      -0.65858171       0.00000000
Si      -1.51422066      -1.00069470       1.73832702       0.00000000
Si      -1.83057246       0.19007172      -1.78361010       0.00000000
Si      -0.89549388       2.30974281       2.20718053       0.00000000
Si       0.68172021      -2.44431450      -2.21856147       0.00000000
Si      -2.80924308       0.96739794       1.59979586       0.00000000
Si      -2.53524528      -2.64095109       0.33510167       0.00000000
Si      -0.79089579      -1.18004760      -3.44326765       0.00000000
Si       0.78506397       3.09855348      -2.00617455       0.00000000
