10
Lattice="16.28999089631971 0.0 0.0 0.0 16.28999089631971 0.0 0.0 0.0 34.383488856416385" Properties=species:S:1:pos:R:3:initial_magmoms:R:1 pbc="T T T"
Si      -1.79660781      -1.33144686      -0.77682660       0.00000000
Si       1.67943384      -1.62756648      -0.44760451       0.00000000
Si      -0.20588931       2.03861205      -1.24684915       0.00000000
Si       0.09651825       0.40268880       2.37820410       0.00000000
Si      -1.39512447       2.24862273       2.33704704       0.00000000
Si       2.08520145      -2.40987744       1.71601212       0.00000000
Si      -1.40470299       3.43969866       0.24845523       0.00000000
Si      -0.95167809      -2.70190827      -2.55692958       0.00000000
Si       2.29620582       1.18366398       2.90784766       0.00000000
Si      -2.50626537      -2.91506292       0.86694577       0.00000000
