10
Lattice="16.28999089631971 0.0 0.0 0.0 16.28999089631971 0.0 0.0 0.0 34.383488856416385" Properties=species:S:1:pos:R:3:initial_magmoms:R:1 pbc="T T T"
Si      -1.24486551       1.92867084       0.34390385       0.00000000
Si       0.36615033       0.22835322      -2.29465218       0.00000000
Si      -1.46831544      -1.83388943       0.39080295       0.00000000
Si       2.26217601       0.46838637       0.71916545       0.00000000
Si      -1.95204699       1.37166687       2.51766361       0.00000000
Si       1.18486944      -1.99538558      -2.79142510       0.00000000
Si       2.04389001       3.01164633       0.53222232       0.00000000
Si      -1.02540663      -2.42418725       2.62903179       0.00000000
Si      -0.86724702      -0.31320131       3.74580814       0.00000000
Si      -0.06564870       3.85914987      -0.16995768       0.00000000
