10
Lattice="16.28999089631971 0.0 0.0 0.0 16.28999089631971 0.0 0.0 0.0 34.383488856416385" Properties=species:S:1:pos:R:3:initial_magmoms:R:1 pbc="T T T"
Si      -0.71548938      -2.18218952      -0.38038475       0.00000000
Si      -1.55808963       0.73038821       1.62864363       0.00000000
Si       0.05758515       1.05146411      -2.13662558       0.00000000
Si       1.99339101       0.50452411       1.21250003       0.00000000
Si       1.32664131      -2.83968650      -1.35914569       0.00000000
Si      -0.44020467      -0.26603362       3.46919281       0.00000000
Si       1.80069660       2.85453905       1.31018358       0.00000000
Si      -1.22841261       2.99337872      -1.72185732       0.00000000
Si      -0.27658791       3.67011419       0.47507693       0.00000000
Si      -2.61309519      -2.02877030      -1.88057159       0.00000000
