10
Lattice="16.28999089631971 0.0 0.0 0.0 16.28999089631971 0.0 0.0 0.0 34.383488856416385" Properties=species:S:1:pos:R:3:initial_magmoms:R:1 pbc="T T T"
Si       1.55106701      -0.09023031      -1.78089380       0.00000000
Si      -2.02228200       1.10245833      -0.53524807       0.00000000
Si       0.98144155       1.23206157       1.84316233       0.00000000
Si      -0.48916443      -2.29016549       0.66913745       0.00000000
Si       0.80957553      -1.97539056      -2.95866649       0.00000000
Si      -1.17507168       3.02122485      -1.75892274       0.00000000
Si      -2.98208880      -0.35938998      -2.14597789       0.00000000
Si       3.63711554      -0.68385420      -0.69657549       0.00000000
Si      -1.55436804      -2.10897996      -2.80345933       0.00000000
Si       2.14809551      -0.45305748       3.18728243       0.00000000
