10
Lattice="16.28999089631971 0.0 0.0 0.0 16.28999089631971 0.0 0.0 0.0 34.383488856416385" Properties=species:S:1:pos:R:3:initial_magmoms:R:1 pbc="T T T"
Si      -0.55814427      -0.88650180       2.03072437       0.00000000
Si      -1.53039663       1.62196272      -0.56437090       0.00000000
Si       1.97517879       1.16279649       0.38791474       0.00000000
Si      -0.14019174      -1.96046403      -1.26514118       0.00000000
Si       3.18536289      -0.75901626       0.12309296       0.00000000
Si       2.14861842      -2.19239779      -1.42732819       0.00000000
Si      -1.30183164       1.10387556       2.95742868       0.00000000
Si      -1.25807670      -0.96404220      -3.10569037       0.00000000
Si      -2.94881580       1.39101939       1.29251045       0.00000000
Si      -1.73662803       1.32976899      -2.86889115       0.00000000
