10
Lattice="16.28999089631971 0.0 0.0 0.0 16.28999089631971 0.0 0.0 0.0 34.383488856416385" Properties=species:S:1:pos:R:3:initial_magmoms:R:1 pbc="T T T"
Si      -1.35487188      -1.35596331       1.35636063       0.00000000
Si      -1.35666378       1.35645201      -1.35777035       0.00000000
Si       1.35809730      -1.35754344      -1.35783912       0.00000000
Si       1.35884664       1.35948195       1.35766720       0.00000000
Si      -2.71471221       2.71476108       0.00024068       0.00000000
Si       0.00070047      -2.71464705      -2.71499056       0.00000000
Si      -2.71453302      -2.71528236      -0.00024068       0.00000000
Si       2.71575477       2.71456560       0.00020630       0.00000000
Si       2.71538010      -2.71498914      -0.00003438       0.00000000
Si      -0.00400734      -2.71614573       2.71468111       0.00000000
