10
Lattice="16.28999089631971 0.0 0.0 0.0 16.28999089631971 0.0 0.0 0.0 34.383488856416385" Properties=species:S:1:pos:R:3:initial_magmoms:R:1 pbc="T T T"
Si      -1.28878335       1.31009067       1.45325335       0.00000000
Si       1.36243044       1.35641943      -1.35230337       0.00000000
Si      -1.35739683      -1.35883035      -1.35567296       0.00000000
Si       1.40530572      -1.27358478       1.42736257       0.00000000
Si      -2.69017947       2.69272071       0.00639533       0.00000000
Si      -2.70084942      -2.70070444       0.03056694       0.00000000
Si       2.71484253      -2.68727659      -0.00140972       0.00000000
Si      -2.70826137       0.00135207      -2.71399344       0.00000000
Si       0.00534312      -2.71383744      -2.71196482       0.00000000
Si       0.00545715       2.71679733      -2.71268687       0.00000000
