10
Lattice="16.28999089631971 0.0 0.0 0.0 16.28999089631971 0.0 0.0 0.0 34.383488856416385" Properties=species:S:1:pos:R:3:initial_magmoms:R:1 pbc="T T T"
Si      -1.43856990       1.24030431      -1.35041228       0.00000000
Si       1.48794489      -1.46548098      -1.22374344       0.00000000
Si      -1.04827779      -1.51132104       1.58002535       0.00000000
Si      -1.52379918       0.86390757       2.19273946       0.00000000
Si       0.09549198       3.05843121       0.24738934       0.00000000
Si       0.60075891       1.35120663       3.06635563       0.00000000
Si       2.44457514      -2.56103235       0.87657315       0.00000000
Si       0.23771997      -3.45323565       1.16525709       0.00000000
Si       2.77158060      -0.03046230      -2.61369675       0.00000000
Si       0.04005711       2.58693345      -2.80964836       0.00000000
