10
Lattice="16.28999089631971 0.0 0.0 0.0 16.28999089631971 0.0 0.0 0.0 34.383488856416385" Properties=species:S:1:pos:R:3:initial_magmoms:R:1 pbc="T T T"
Si      -2.12455809      -0.48729906      -0.87361617       0.00000000
Si       0.40786902       1.62479718       1.65814468       0.00000000
Si       2.27716281      -0.26595054      -0.65022652       0.00000000
Si      -0.69721200      -2.18579220       0.71060396       0.00000000
Si      -0.50526693       1.70722458      -2.81896629       0.00000000
Si      -0.60075891      -1.35120663      -3.06635563       0.00000000
Si      -1.64903670      -2.86252767      -1.48633029       0.00000000
Si       1.38007251      -3.00136734       1.54571061       0.00000000
Si       0.56200500       0.28799091       3.62495011       0.00000000
Si       1.69907958       3.30841755       0.49825142       0.00000000
