10
Lattice="16.28999089631971 0.0 0.0 0.0 16.28999089631971 0.0 0.0 0.0 34.383488856416385" Properties=species:S:1:pos:R:3:initial_magmoms:R:1 pbc="T T T"
Si      -0.72259182      -2.17689786      -0.13495527       0.00000000
Si      -1.86538419       1.14815178      -0.86171948       0.00000000
Si       0.07638381       0.72356922       2.25184471       0.00000000
Si       2.09044683       0.65060631      -0.91549529       0.00000000
Si      -0.78205032       3.12655599      -0.16160249       0.00000000
Si       0.81200763       2.85752664       1.64122799       0.00000000
Si      -0.92882322      -2.46909159      -2.43947551       0.00000000
Si      -2.14101099      -2.40784119       1.72192608       0.00000000
Si       2.85666327       2.24811774       0.63038724       0.00000000
Si       3.38792904      -1.27980756      -1.04312687       0.00000000
