10
Lattice="16.28999089631971 0.0 0.0 0.0 16.28999089631971 0.0 0.0 0.0 34.383488856416385" Properties=species:S:1:pos:R:3:initial_magmoms:R:1 pbc="T T T"
Si       1.35381303       1.35496962       1.37327731       0.00000000
Si      -1.35942656      -1.36256076       1.37760963       0.00000000
Si       1.46800593      -1.25910297      -1.45715244       0.00000000
Si      -1.42544505       1.41258735      -1.36968424       0.00000000
Si      -0.00327429      -2.27654379      -2.97834902       0.00000000
Si      -2.70275182      -2.71459818      -0.00979242       0.00000000
Si       2.71000440      -2.71966437       0.00324580       0.00000000
Si       2.72254770       2.71955034      -0.01096834       0.00000000
Si      -2.72333275       2.71854036       0.04322695       0.00000000
Si       2.71248048      -0.00356751       2.73489862       0.00000000
