10
Lattice="16.28999089631971 0.0 0.0 0.0 16.28999089631971 0.0 0.0 0.0 34.383488856416385" Properties=species:S:1:pos:R:3:initial_magmoms:R:1 pbc="T T T"
Si       1.34535852      -1.35027810      -1.35718583       0.00000000
Si       1.35508365       1.35741312       1.35574172       0.00000000
Si      -1.35829278      -1.35692442       1.35546666       0.00000000
Si      -1.35915615       1.35856971      -1.36530034       0.00000000
Si       2.71371852      -0.00009774       2.71279002       0.00000000
Si       2.71244790       2.71456560      -0.00285383       0.00000000
Si      -0.00105885       2.71503801       2.71292755       0.00000000
Si      -0.00100998      -2.71520091       2.71299632       0.00000000
Si      -2.71656927       0.00039096       2.71279002       0.00000000
Si       2.71458189      -2.71500543      -0.00409164       0.00000000
