10
Lattice="16.28999089631971 0.0 0.0 0.0 16.28999089631971 0.0 0.0 0.0 34.383488856416385" Properties=species:S:1:pos:R:3:initial_magmoms:R:1 pbc="T T T"
Si       0.96342318      -2.01403044      -0.64981392       0.00000000
Si      -0.16386111      -0.19715787       2.33285226       0.00000000
Si      -1.93875435       0.08118936      -1.39593604       0.00000000
Si       1.94605227       1.47691656      -0.06725414       0.00000000
Si       2.68690518       0.72397647      -2.21402285       0.00000000
Si       2.55748113      -2.28305979       1.15301656       0.00000000
Si       2.15005194      -0.68662350       2.91303957       0.00000000
Si      -2.53478916       2.35364436      -1.34690516       0.00000000
Si       2.03698305      -1.55046591      -2.69147224       0.00000000
Si       1.08875844       3.73360284      -0.27805943       0.00000000
