10
Lattice="16.28999089631971 0.0 0.0 0.0 16.28999089631971 0.0 0.0 0.0 34.383488856416385" Properties=species:S:1:pos:R:3:initial_magmoms:R:1 pbc="T T T"
Si      -0.73562382      -2.13395742       0.61061672       0.00000000
Si       2.04465564      -0.60940890      -1.01084075       0.00000000
Si      -0.40742919       1.59643629       1.76002301       0.00000000
Si      -1.59405795       0.26902935      -1.80283048       0.00000000
Si      -0.81200763      -2.85752664      -1.64122799       0.00000000
Si       1.27843920      -2.20692033      -2.55672328       0.00000000
Si      -2.55748113       2.28305979      -1.15301656       0.00000000
Si      -2.72134224       2.08590192       1.17983570       0.00000000
Si       0.65469510       3.51157014       0.82609816       0.00000000
Si      -2.75815764      -1.82061927       1.83143756       0.00000000
