10
Lattice="16.28999089631971 0.0 0.0 0.0 16.28999089631971 0.0 0.0 0.0 34.383488856416385" Properties=species:S:1:pos:R:3:initial_magmoms:R:1 pbc="T T T"
Si      -0.36243621      -1.50193800      -1.81778730       0.00000000
Si      -1.22435640       1.66180806       1.20906168       0.00000000
Si      -0.05339862       1.53969822      -1.84295603       0.00000000
Si       1.73402163      -1.25890749       1.09786541       0.00000000
Si       0.19574064      -2.49522075       2.45514549       0.00000000
Si      -0.60062859       3.48607629      -0.63207203       0.00000000
Si      -2.12649660       0.81005283      -2.85369364       0.00000000
Si      -2.78501985       0.40123899       2.64460550       0.00000000
Si       1.63230687      -1.34254035      -3.26395765       0.00000000
Si       2.83242375       0.33200649       2.65191887       0.00000000
