10
Lattice="16.28999089631971 0.0 0.0 0.0 16.28999089631971 0.0 0.0 0.0 34.383488856416385" Properties=species:S:1:pos:R:3:initial_magmoms:R:1 pbc="T T T"
Si       0.71548938       2.18218952       0.38038475       0.00000000
Si       2.04213069      -0.65749698      -0.97876094       0.00000000
Si      -0.97327863      -1.33705062       1.72856210       0.00000000
Si      -1.89760581       0.15341922      -1.50018684       0.00000000
Si      -2.07741483      -2.92361517       0.36649381       0.00000000
Si      -0.84260025       2.91257774       2.00902838       0.00000000
Si      -3.29339817       1.55068812      -0.14753963       0.00000000
Si       0.77307453       3.23365364      -1.75624083       0.00000000
Si      -2.39142087      -2.11372524      -2.20711177       0.00000000
Si       3.95086257      -0.44206173       0.43288837       0.00000000
