10
Lattice="16.28999089631971 0.0 0.0 0.0 16.28999089631971 0.0 0.0 0.0 34.383488856416385" Properties=species:S:1:pos:R:3:initial_magmoms:R:1 pbc="T T T"
Si      -1.35563751      -1.35668584       1.35684200       0.00000000
Si       1.35790182      -1.35712567      -1.35735775       0.00000000
Si       1.35770634       1.35857928       1.35687638       0.00000000
Si      -1.35801585       1.35730214      -1.35804542       0.00000000
Si      -0.00171045       2.71332898       2.71375276       0.00000000
Si      -0.00229689      -2.71483201       2.71347769       0.00000000
Si       2.71353933      -0.00246556      -2.71560947       0.00000000
Si      -2.71428867      -2.71504378       0.00000000       0.00000000
Si      -2.71461447       2.71515346      -0.00017192       0.00000000
Si      -2.71538010      -0.00236782      -2.71450920       0.00000000
