10
Lattice="16.28999089631971 0.0 0.0 0.0 16.28999089631971 0.0 0.0 0.0 34.383488856416385" Properties=species:S:1:pos:R:3:initial_magmoms:R:1 pbc="T T T"
Si      -1.66286691      -1.46994444       0.77637961       0.00000000
Si       1.42772076      -1.74958998      -0.65748144       0.00000000
Si      -0.89454906       1.40058162      -1.68750819       0.00000000
Si       0.95980680       1.46184831       1.61072982       0.00000000
Si       1.02084543       2.69193879      -1.76744985       0.00000000
Si       0.10489131      -2.62098444      -2.32673199       0.00000000
Si       0.98460018      -3.17492817       1.20307895       0.00000000
Si      -2.02631310      -2.61151506      -1.27287747       0.00000000
Si       2.98208880       0.35938998       2.14597789       0.00000000
Si       1.80701712       3.38061483       0.38705515       0.00000000
