10
Lattice="16.28999089631971 0.0 0.0 0.0 16.28999089631971 0.0 0.0 0.0 34.383488856416385" Properties=species:S:1:pos:R:3:initial_magmoms:R:1 pbc="T T T"
Si      -1.58113998       0.43292304      -1.64793694       0.00000000
Si      -1.52967987      -1.10902320       1.43427434       0.00000000
Si       1.29294286       1.68883317       1.24621375       0.00000000
Si       0.30099784       0.09697437      -2.96915762       0.00000000
Si       2.20844249      -0.88892901      -2.12077894       0.00000000
Si       0.17725555      -2.08889928       2.66872824       0.00000000
Si       1.96577036       1.90827576      -2.25707517       0.00000000
Si       2.86652591      -2.14571880      -0.21658588       0.00000000
Si      -2.52454275       0.61660908       2.65332099       0.00000000
Si       1.47514325      -3.39485229       1.25581706       0.00000000
