10
Lattice="16.28999089631971 0.0 0.0 0.0 16.28999089631971 0.0 0.0 0.0 34.383488856416385" Properties=species:S:1:pos:R:3:initial_magmoms:R:1 pbc="T T T"
Si       1.70693542      -0.97987608       1.23445390       0.00000000
Si      -0.99486288       1.72563228       1.21904665       0.00000000
Si       1.52967987       1.10902320      -1.43427434       0.00000000
Si      -1.64206458      -1.86142572      -0.12775192       0.00000000
Si      -0.65598201      -2.31826248      -2.24559177       0.00000000
Si      -0.05146011       1.54194624      -3.08221128       0.00000000
Si       0.36566163      -2.35388871       2.57701986       0.00000000
Si      -2.36946195       0.37802574       2.57148412       0.00000000
Si      -1.65708396      -0.20035071      -3.38244808       0.00000000
Si       3.00482312      -2.28582909      -0.17845728       0.00000000
