10
Lattice="16.28999089631971 0.0 0.0 0.0 16.28999089631971 0.0 0.0 0.0 34.383488856416385" Properties=species:S:1:pos:R:3:initial_magmoms:R:1 pbc="T T T"
Si      -1.40924790      -1.33304328       1.34398256       0.00000000
Si       1.31258304       0.91818585      -1.74912344       0.00000000
Si       1.44169758      -1.48128228       1.36124308       0.00000000
Si       0.76277925       2.69480583       0.38781159       0.00000000
Si      -1.46468277      -1.80454104      -1.71305514       0.00000000
Si      -2.80393254       2.28356478       0.00213178       0.00000000
Si       3.13584129       1.84047678      -0.42123236       0.00000000
Si      -0.14569776       2.22244470      -3.08609177       0.00000000
Si       2.73927753      -2.89189854      -0.07794741       0.00000000
Si       2.58266547      -0.52271352      -3.10235517       0.00000000
