10
Lattice="16.28999089631971 0.0 0.0 0.0 16.28999089631971 0.0 0.0 0.0 34.383488856416385" Properties=species:S:1:pos:R:3:initial_magmoms:R:1 pbc="T T T"
Si      -0.76621644      -1.59751143      -1.54588252       0.00000000
Si      -2.04465564       0.60940890       1.01084075       0.00000000
Si       1.46033334      -0.74443671       1.70617844       0.00000000
Si       1.27482282       1.48812408      -1.38324853       0.00000000
Si       3.36463434       0.36435843       1.00086954       0.00000000
Si       2.49189759       2.48968215       0.36621874       0.00000000
Si      -2.78027946      -1.52454852       1.62145747       0.00000000
Si      -0.92035242      -0.26070516      -3.51268795       0.00000000
Si      -2.85666327      -2.24811774      -0.63038724       0.00000000
Si      -3.63871359       0.87843825      -0.79198972       0.00000000
