10
Lattice="16.28999089631971 0.0 0.0 0.0 16.28999089631971 0.0 0.0 0.0 34.383488856416385" Properties=species:S:1:pos:R:3:initial_magmoms:R:1 pbc="T T T"
Si      -1.35508365      -1.35741312      -1.35574172       0.00000000
Si      -1.35614250       1.35762489       1.35718583       0.00000000
Si       1.35736425       1.35715248      -1.35859555       0.00000000
Si       1.35863487      -1.35751086       1.35704830       0.00000000
Si      -0.00972513      -2.70769122      -2.71292755       0.00000000
Si      -2.71337643      -2.71433754      -0.00027507       0.00000000
Si      -2.71262709       0.00245979       2.71516248       0.00000000
Si       0.00185706      -2.71498914       2.71485303       0.00000000
Si       0.00250866       2.71598283       2.71402783       0.00000000
Si      -2.71443528       2.71583622      -0.00037822       0.00000000
