10
Lattice="16.28999089631971 0.0 0.0 0.0 16.28999089631971 0.0 0.0 0.0 34.383488856416385" Properties=species:S:1:pos:R:3:initial_magmoms:R:1 pbc="T T T"
Si       1.35746245       1.35625653      -1.35718583       0.00000000
Si      -1.36014984       1.35646830       1.35622309       0.00000000
Si      -1.35736425      -1.35887922      -1.35739213       0.00000000
Si       1.35573340      -1.35917244       1.36155254       0.00000000
Si       0.00785178       2.68710066       2.71640029       0.00000000
Si      -2.71349046       2.71461447      -0.00041260       0.00000000
Si       0.00004887       2.71417464      -2.71461235       0.00000000
Si       2.71462817      -0.00161271      -2.71444043       0.00000000
Si      -2.71599912      -0.00136836      -2.71444043       0.00000000
Si      -2.71414206      -2.71635750       0.00041260       0.00000000
