10
Lattice="16.28999089631971 0.0 0.0 0.0 16.28999089631971 0.0 0.0 0.0 34.383488856416385" Properties=species:S:1:pos:R:3:initial_magmoms:R:1 pbc="T T T"
Si       0.37009251      -1.17428094       1.98461609       0.00000000
Si       1.63835046      -1.03389372      -1.31809178       0.00000000
Si      -1.90873188      -0.21543525      -1.41164931       0.00000000
Si       0.82857456       2.17926547       0.60869124       0.00000000
Si      -0.87270417       0.77644656      -3.28606625       0.00000000
Si       3.40434351       0.46990134      -0.90841228       0.00000000
Si      -1.24198218       3.12877536       1.15999641       0.00000000
Si       2.29683040       2.54365485      -1.16274709       0.00000000
Si       0.19709271       0.45243846       3.62831969       0.00000000
Si      -1.17143019      -2.90362734       1.98936101       0.00000000
