10
Lattice="16.28999089631971 0.0 0.0 0.0 16.28999089631971 0.0 0.0 0.0 34.383488856416385" Properties=species:S:1:pos:R:3:initial_magmoms:R:1 pbc="T T T"
Si       0.74905234      -2.15203932       0.47383912       0.00000000
Si      -0.52644393       0.32855301      -2.24978170       0.00000000
Si      -1.63835046       1.03389372       1.31809178       0.00000000
Si       1.76599305       1.50379506       0.40967950       0.00000000
Si       2.40934706      -2.06887887      -1.20311333       0.00000000
Si      -1.26825795      -0.14038722       3.30270787       0.00000000
Si       0.65847994       3.57754857       0.15534469       0.00000000
Si      -3.54708234       0.81845847      -0.09355753       0.00000000
Si      -2.51105463       1.81034028      -1.96797447       0.00000000
Si       2.45730482       0.93836916       2.66231503       0.00000000
