10
Lattice="16.28999089631971 0.0 0.0 0.0 16.28999089631971 0.0 0.0 0.0 34.383488856416385" Properties=species:S:1:pos:R:3:initial_magmoms:R:1 pbc="T T T"
Si      -0.98178268       1.25263584      -1.73856770       0.00000000
Si       2.20282177      -0.87092856       0.26526876       0.00000000
Si      -1.17012766      -2.07389619      -0.35329055       0.00000000
Si      -0.60900232       1.18063404       2.02608260       0.00000000
Si       1.49316421      -2.45454462       1.90904114       0.00000000
Si      -2.69881384       2.30439969      -0.35803547       0.00000000
Si      -0.69431305      -3.12365637       1.66440248       0.00000000
Si      -2.51330332       0.07183890       2.73139150       0.00000000
Si      -1.48173907       3.30595776       1.39143180       0.00000000
Si       0.47397384       2.99214720      -2.47110834       0.00000000
