10
Lattice="16.28999089631971 0.0 0.0 0.0 16.28999089631971 0.0 0.0 0.0 34.383488856416385" Properties=species:S:1:pos:R:3:initial_magmoms:R:1 pbc="T T T"
Si      -2.18747726      -0.66911175      -0.24463866       0.00000000
Si       0.57231657      -0.05364297       2.25373580       0.00000000
Si       0.70965756       1.58361606      -1.64377237       0.00000000
Si      -0.33181101      -2.27432835      -0.73625406       0.00000000
Si       0.37537047      -1.71732438      -2.91001382       0.00000000
Si      -1.49316421       2.45454462      -1.90904114       0.00000000
Si       2.81540070      -0.59074056       1.91808400       0.00000000
Si      -2.66329187       0.38064843      -2.26233168       0.00000000
Si      -3.36019436       0.36170316       1.45947677       0.00000000
Si       1.55458728       0.21315465      -3.42387535       0.00000000
