10
Lattice="16.28999089631971 0.0 0.0 0.0 16.28999089631971 0.0 0.0 0.0 34.383488856416385" Properties=species:S:1:pos:R:3:initial_magmoms:R:1 pbc="T T T"
Si       1.59577003      -1.08297549       1.39013555       0.00000000
Si       1.82811430       0.79285059      -1.34345447       0.00000000
Si      -1.09531258       1.61692911       1.40417089       0.00000000
Si      -1.29294286      -1.68883317      -1.24621375       0.00000000
Si       0.67282750       0.21944259      -3.50328892       0.00000000
Si       0.25109406      -2.42442441       2.75951033       0.00000000
Si      -2.46293953       0.28787688       2.75816937       0.00000000
Si       2.61767431       2.66730831       0.11099684       0.00000000
Si      -2.58620596       2.78565516       0.07606663       0.00000000
Si       2.95556149      -2.40617961      -0.07697092       0.00000000
