10
Lattice="16.28999089631971 0.0 0.0 0.0 16.28999089631971 0.0 0.0 0.0 34.383488856416385" Properties=species:S:1:pos:R:3:initial_magmoms:R:1 pbc="T T T"
Si      -1.35620634      -1.35563751       1.35632624       0.00000000
Si      -1.35684165       1.35746199      -1.35725460       0.00000000
Si       1.35776698      -1.35840681      -1.35691076       0.00000000
Si       1.35835342       1.35837423       1.35742652       0.00000000
Si       0.00075188      -2.71370223      -2.71107084       0.00000000
Si       2.71423202      -0.00050499      -2.71337454       0.00000000
Si      -0.00031287       2.71326240      -2.71505933       0.00000000
Si      -2.71326108      -0.00125433       2.71526563       0.00000000
Si      -2.71480863      -2.71450044      -0.00010315       0.00000000
Si       2.71180481       0.00122175       2.71760371       0.00000000
