10
Lattice="16.28999089631971 0.0 0.0 0.0 16.28999089631971 0.0 0.0 0.0 34.383488856416385" Properties=species:S:1:pos:R:3:initial_magmoms:R:1 pbc="T T T"
Si       1.36056733      -1.35316143      -1.35491652       0.00000000
Si      -1.35346625       1.35913986      -1.35625748       0.00000000
Si      -1.35652877      -1.35580041       1.35780473       0.00000000
Si       1.35774102       1.35887922       1.35804542       0.00000000
Si      -0.00621404      -2.70646947      -2.69191235       0.00000000
Si       0.01416070       2.68819209      -2.71025596       0.00000000
Si      -2.70801233      -0.00096111      -2.70731960       0.00000000
Si      -2.71338803      -2.71329498      -0.00178794       0.00000000
Si       2.71454489      -2.71376739       0.00168479       0.00000000
Si       0.00031287      -2.71326240       2.71505933       0.00000000
