10
Lattice="16.28999089631971 0.0 0.0 0.0 16.28999089631971 0.0 0.0 0.0 34.383488856416385" Properties=species:S:1:pos:R:3:initial_magmoms:R:1 pbc="T T T"
Si      -1.29972471      -1.16160732       1.55585374       0.00000000
Si      -1.45633677       1.20757770      -1.46855401       0.00000000
Si       1.25124761      -1.48429593      -1.44204433       0.00000000
Si       1.00513829       1.77183072       1.36777595       0.00000000
Si       2.19346121      -0.21126501       2.29888135       0.00000000
Si       0.68704346      -2.01150549       2.81449644       0.00000000
Si      -2.72641920       2.64847707      -0.11532229       0.00000000
Si      -0.11381456       2.58367545      -2.82436450       0.00000000
Si       2.59945688      -0.12968469      -2.82573984       0.00000000
Si      -2.77216152      -2.69164557       0.11669763       0.00000000
