10
Lattice="16.28999089631971 0.0 0.0 0.0 16.28999089631971 0.0 0.0 0.0 34.383488856416385" Properties=species:S:1:pos:R:3:initial_magmoms:R:1 pbc="T T T"
Si       1.33838803       1.34127462      -1.36358116       0.00000000
Si      -1.15102697       1.55229528       1.34793667       0.00000000
Si      -1.37921470      -1.37216085      -1.35801103       0.00000000
Si       1.30702978      -1.34244180       1.48371714       0.00000000
Si      -2.18477149      -0.25062817       2.43706867       0.00000000
Si      -0.69640076      -2.14563965       2.61149621       0.00000000
Si       2.70083476       2.69018436       0.02489366       0.00000000
Si       2.67915277      -2.72727410       0.02537503       0.00000000
Si       2.69529616      -0.00979681      -2.71884152       0.00000000
Si      -0.02017191       2.70127785      -2.71915097       0.00000000
