10
Lattice="16.28999089631971 0.0 0.0 0.0 16.28999089631971 0.0 0.0 0.0 34.383488856416385" Properties=species:S:1:pos:R:3:initial_magmoms:R:1 pbc="T T T"
Si       0.12846294       1.88744085       1.35161570       0.00000000
Si      -1.93403188      -1.22544783       0.59455962       0.00000000
Si       1.49164272      -1.84593393       0.04115706       0.00000000
Si      -0.00957852       1.19107593      -2.08859181       0.00000000
Si       1.39512447      -2.24862273      -2.33704704       0.00000000
Si       1.84184514       3.24819342       0.44567903       0.00000000
Si       1.18923516      -0.21001068      -3.58389620       0.00000000
Si      -3.21330743      -1.52850699      -1.35305981       0.00000000
Si       3.69133029      -1.06495875       0.57080062       0.00000000
Si      -2.20637461       1.93942224      -2.55349123       0.00000000
