10
Lattice="16.28999089631971 0.0 0.0 0.0 16.28999089631971 0.0 0.0 0.0 34.383488856416385" Properties=species:S:1:pos:R:3:initial_magmoms:R:1 pbc="T T T"
Si       1.81617210      -0.03451851      -1.56561866       0.00000000
Si      -1.63799469       1.78888635      -0.40706635       0.00000000
Si       1.15528680       0.57340800       2.15983444       0.00000000
Si      -1.66477251      -1.81130139      -0.71208245       0.00000000
Si       0.24267213      -2.79720477       0.13629623       0.00000000
Si      -1.96577036      -1.90827576       2.25707517       0.00000000
Si      -0.67282750      -0.21944259       3.50328892       0.00000000
Si       2.79438660      -2.15067096      -1.42492134       0.00000000
Si      -0.09861966       3.73705632      -0.72978996       0.00000000
Si       3.10412466      -0.78042132       2.13439065       0.00000000
