10
Lattice="16.28999089631971 0.0 0.0 0.0 16.28999089631971 0.0 0.0 0.0 34.383488856416385" Properties=species:S:1:pos:R:3:initial_magmoms:R:1 pbc="T T T"
Si       0.46669221      -2.34388665       0.22132664       0.00000000
Si       1.29062412       0.87000003       1.85643437       0.00000000
Si      -2.09041099      -0.11355759       1.22673480       0.00000000
Si       0.87879663       1.81489401      -2.31139695       0.00000000
Si       2.23645410      -2.49279354      -1.50885148       0.00000000
Si       0.93475278      -0.89551017       3.52169643       0.00000000
Si      -1.39909923      -0.67898349       3.47937033       0.00000000
Si      -3.19792411       1.96019592       0.97239999       0.00000000
Si       0.47190501       3.09373883       2.35320729       0.00000000
Si       2.92473918       0.25511769      -2.65375354       0.00000000
