10
Lattice="16.28999089631971 0.0 0.0 0.0 16.28999089631971 0.0 0.0 0.0 34.383488856416385" Properties=species:S:1:pos:R:3:initial_magmoms:R:1 pbc="T T T"
Si      -1.76599305      -1.50379506      -0.40967950       0.00000000
Si      -1.10751312       2.07375351      -0.25433481       0.00000000
Si       0.69131176      -0.56542590       2.25263553       0.00000000
Si       2.09041099       0.11355759      -1.22673480       0.00000000
Si      -2.57576895       1.70936413       1.51710353       0.00000000
Si       2.55710320      -2.23032906      -1.00540816       0.00000000
Si      -3.40434351      -0.46990134       0.90841228       0.00000000
Si       3.38103511       0.98355762       0.62969957       0.00000000
Si      -2.29243698      -1.17524205      -2.65946120       0.00000000
Si      -1.01694072      -3.65583438       0.06415963       0.00000000
