10
Lattice="16.28999089631971 0.0 0.0 0.0 16.28999089631971 0.0 0.0 0.0 34.61538196595647" Properties=species:S:1:pos:R:3:initial_magmoms:R:1 pbc="T T T"
Si      -1.34258596      -1.34404307       1.38603182       0.00000000
Si       1.37370312       1.36950344       1.38360874       0.00000000
Si      -1.41407300       1.33623275      -1.46904994       0.00000000
Si       1.39152438      -1.46833577      -1.42511261       0.00000000
Si       0.48444831       2.05102817      -2.68158875       0.00000000
Si       2.28219642       0.38025573      -2.52258837       0.00000000
Si      -2.69860859      -0.31575311      -2.64969543       0.00000000
Si      -2.67808319      -2.72931209       0.01975847       0.00000000
Si      -2.69746829       2.72427758       0.02383963       0.00000000
Si       2.73893544      -2.70228698       0.02015655       0.00000000
