10
Lattice="16.28999089631971 0.0 0.0 0.0 16.28999089631971 0.0 0.0 0.0 34.61538196595647" Properties=species:S:1:pos:R:3:initial_magmoms:R:1 pbc="T T T"
Si      -1.64379688       1.52661735       0.75915037       0.00000000
Si       1.24064803      -0.86139891       1.82520088       0.00000000
Si      -1.14279793      -1.91840814      -0.86109272       0.00000000
Si       1.25253973       0.99090441      -1.81993934       0.00000000
Si       2.47547890      -2.59621875       0.74312344       0.00000000
Si       1.92235195      -0.95366547      -3.03023223       0.00000000
Si      -0.51608349      -1.84461444       3.30331313       0.00000000
Si      -2.23439083      -1.30052844      -2.87782062       0.00000000
Si      -3.16919248       2.22687558      -0.91941967       0.00000000
Si      -3.21627058       0.61315560       2.31462804       0.00000000
