10
Lattice="16.28999089631971 0.0 0.0 0.0 16.28999089631971 0.0 0.0 0.0 34.61538196595647" Properties=species:S:1:pos:R:3:initial_magmoms:R:1 pbc="T T T"
Si      -2.06840646       0.54071886      -0.98030817       0.00000000
Si       0.51173406       2.29352449       0.26027320       0.00000000
Si      -0.25624170      -1.92987697       1.37419682       0.00000000
Si       1.72820610      -0.49621637      -1.56506614       0.00000000
Si      -1.27718487      -1.58061937      -2.64828589       0.00000000
Si      -1.59464439      -3.03347560      -0.29585784       0.00000000
Si      -0.52473348       1.62169231      -2.99253606       0.00000000
Si      -3.37813875      -1.44238243      -0.69175418       0.00000000
Si       2.44359774       1.55047243      -2.39123192       0.00000000
Si       2.73678516       2.71032043      -0.33836555       0.00000000
