10
Lattice="16.28999089631971 0.0 0.0 0.0 16.28999089631971 0.0 0.0 0.0 34.61538196595647" Properties=species:S:1:pos:R:3:initial_magmoms:R:1 pbc="T T T"
Si       0.54408600      -1.04412384      -1.98806634       0.00000000
Si       0.19095138       2.12261958      -0.95490046       0.00000000
Si       1.53415962       0.05279589       1.80640472       0.00000000
Si      -2.37029274      -0.14794578       0.24023089       0.00000000
Si       1.14100047       2.22213519       2.63329742       0.00000000
Si      -2.00448450       2.52938088      -1.86192782       0.00000000
Si       1.42798140       3.41501931       0.56807335       0.00000000
Si      -3.11805261      -1.06414425      -1.90090476       0.00000000
Si       2.76913710      -0.62732790      -2.58670509       0.00000000
Si      -3.14279712       2.22244470       0.14773853       0.00000000
