10
Lattice="16.28999089631971 0.0 0.0 0.0 16.28999089631971 0.0 0.0 0.0 34.61538196595647" Properties=species:S:1:pos:R:3:initial_magmoms:R:1 pbc="T T T"
Si      -0.62464005      -1.03260681      -2.06401253       0.00000000
Si       2.00964843      -0.81570546       1.05040435       0.00000000
Si       0.34044471       2.32512057      -0.62591569       0.00000000
Si      -1.75677876      -0.53970399       1.59867769       0.00000000
Si       2.44317420       2.47766013       0.36335787       0.00000000
Si      -2.92418532      -0.70333704      -1.79955087       0.00000000
Si       2.58800859       1.16797671       2.27668956       0.00000000
Si      -3.12554601      -1.91089682       0.25044243       0.00000000
Si       1.13917599      -2.61497831       2.37139730       0.00000000
Si      -0.09299961       0.52171983      -3.71714025       0.00000000
