10
Lattice="16.28999089631971 0.0 0.0 0.0 16.28999089631971 0.0 0.0 0.0 34.61538196595647" Properties=species:S:1:pos:R:3:initial_magmoms:R:1 pbc="T T T"
Si      -1.35444834      -1.35417141       1.36674412       0.00000000
Si       1.36223496       1.36590021       1.36632874       0.00000000
Si       1.21489191      -1.53930726      -1.33358603       0.00000000
Si      -1.39694895       1.28181123      -1.42982723       0.00000000
Si      -2.69871543       2.70071910       0.01425808       0.00000000
Si       2.68827354       2.71767699      -0.02064809       0.00000000
Si      -2.70967860      -2.72282463      -0.00280731       0.00000000
Si       2.71252935      -2.72303640       0.01935347       0.00000000
Si       0.00228060      -2.71096551       2.72775247       0.00000000
Si       2.71479366       0.00340461       2.72674862       0.00000000
