10
Lattice="16.28999089631971 0.0 0.0 0.0 16.28999089631971 0.0 0.0 0.0 34.61538196595647" Properties=species:S:1:pos:R:3:initial_magmoms:R:1 pbc="T T T"
Si       1.35356868      -1.35306369      -1.35927758       0.00000000
Si       1.34545626       1.35627282       1.36710066       0.00000000
Si      -1.36107837       1.36111095      -1.35823912       0.00000000
Si      -1.37728692      -1.35190710       1.37253528       0.00000000
Si       2.70736542      -2.71103067       0.00065769       0.00000000
Si       2.70948312       2.71642266       0.00131539       0.00000000
Si      -2.71798650      -2.70839169       0.00131539       0.00000000
Si       2.71078632       0.00324171      -2.71692823       0.00000000
Si      -0.00382815      -2.71130760      -2.71682439       0.00000000
Si      -0.00351864       2.71821456      -2.71682439       0.00000000
