10
Lattice="16.28999089631971 0.0 0.0 0.0 16.28999089631971 0.0 0.0 0.0 34.61538196595647" Properties=species:S:1:pos:R:3:initial_magmoms:R:1 pbc="T T T"
Si      -2.29293153       0.46851669       0.53747334       0.00000000
Si      -0.06214635      -2.03797674      -1.40109298       0.00000000
Si       0.97432119      -1.36614456       1.85171628       0.00000000
Si       1.51695738       1.91303244       0.72162727       0.00000000
Si       0.58047786      -0.17998821      -3.29109390       0.00000000
Si      -1.57424931       2.20736016       1.97785480       0.00000000
Si       0.62118657       1.80059886       2.88488216       0.00000000
Si      -1.60581933      -3.11895019       0.61113491       0.00000000
Si       3.19937229      -0.94934862       1.25307753       0.00000000
Si      -2.68781742      -1.38616497       1.93887786       0.00000000
