10
Lattice="16.28999089631971 0.0 0.0 0.0 16.28999089631971 0.0 0.0 0.0 34.61538196595647" Properties=species:S:1:pos:R:3:initial_magmoms:R:1 pbc="T T T"
Si       1.83316257       0.95351886      -1.13543466       0.00000000
Si      -1.17090891       1.38007251       1.53363882       0.00000000
Si      -1.66980645      -1.06029981      -1.36740324       0.00000000
Si       1.50521229      -1.33613838       1.51004496       0.00000000
Si      -2.51831997       2.61402372       0.08836966       0.00000000
Si      -3.30744015       0.86770314      -1.33687245       0.00000000
Si      -2.58001020      -2.77200414       0.10086582       0.00000000
Si       2.77140141      -2.67530670      -0.01632462       0.00000000
Si      -2.54101194       0.02217069       2.89677947       0.00000000
Si       0.17917371      -2.68791516       2.89702178       0.00000000
