10
Lattice="16.28999089631971 0.0 0.0 0.0 16.28999089631971 0.0 0.0 0.0 34.61538196595647" Properties=species:S:1:pos:R:3:initial_magmoms:R:1 pbc="T T T"
Si      -0.92062935      -1.16313858      -1.76074700       0.00000000
Si      -0.33749622       2.27504511       0.29693091       0.00000000
Si       2.26066104      -0.18295299      -0.61875030       0.00000000
Si       0.17679537      -1.00121598       2.14297026       0.00000000
Si       1.34517933       2.48142312       1.89055476       0.00000000
Si       0.37998054       0.97094916       3.41643626       0.00000000
Si      -0.25036101      -3.40746075      -1.11368131       0.00000000
Si       3.20670279       1.44041067       0.83623886       0.00000000
Si       2.81838177      -2.35121715       0.17463470       0.00000000
Si      -3.26534679      -0.81629190      -1.53803151       0.00000000
