10
Lattice="16.28999089631971 0.0 0.0 0.0 16.28999089631971 0.0 0.0 0.0 34.61538196595647" Properties=species:S:1:pos:R:3:initial_magmoms:R:1 pbc="T T T"
Si       0.92062935       1.16313858       1.76074700       0.00000000
Si      -2.34471744       0.34684668       0.22271549       0.00000000
Si       0.83085516       0.46920087      -2.21777415       0.00000000
Si       0.67026834      -2.24432217       0.64706570       0.00000000
Si       3.18129039       0.98018559       1.14199670       0.00000000
Si      -0.56676168      -3.53672190      -0.87590811       0.00000000
Si      -0.23206734      -1.16587530      -3.51855170       0.00000000
Si      -3.15240822      -1.53500670       1.52307766       0.00000000
Si       2.95642323      -0.51934149      -2.46433965       0.00000000
Si      -3.56816160       0.20088828      -1.78771240       0.00000000
