10
Lattice="16.28999089631971 0.0 0.0 0.0 16.28999089631971 0.0 0.0 0.0 34.61538196595647" Properties=species:S:1:pos:R:3:initial_magmoms:R:1 pbc="T T T"
Si      -1.90102671      -0.14366151      -1.37790066       0.00000000
Si       0.36232218       2.31290307      -0.26363090       0.00000000
Si       1.74314403      -1.56375855      -0.35252325       0.00000000
Si      -0.14030577       1.13899680       3.26932081       0.00000000
Si       0.29310597       2.28610602      -2.63350512       0.00000000
Si      -3.13585758       1.59115833      -0.29582322       0.00000000
Si      -1.03430097       0.55659672      -3.47085167       0.00000000
Si       1.02543921      -2.69024463      -2.26983571       0.00000000
Si       3.70094139      -0.34639056      -0.16272700       0.00000000
Si      -1.71626553       3.26044350       0.86548888       0.00000000
