10
Lattice="16.28999089631971 0.0 0.0 0.0 16.28999089631971 0.0 0.0 0.0 34.61538196595647" Properties=species:S:1:pos:R:3:initial_magmoms:R:1 pbc="T T T"
Si       1.35610992       1.35786702      -1.35730450       0.00000000
Si       1.35710361      -1.35705474       1.35740835       0.00000000
Si      -1.35742941       1.35781350       1.35695835       0.00000000
Si      -1.35891180      -1.35656604      -1.35792758       0.00000000
Si       2.71322982      -0.00014661       2.71433208       0.00000000
Si      -2.71456071       0.00013032       2.71336285       0.00000000
Si      -2.71314511      -0.00006516      -2.71526669       0.00000000
Si       0.00009774       2.71440989       2.71436669       0.00000000
Si       2.71485882      -2.71450044      -0.00051923       0.00000000
Si      -2.71472198      -2.71492398      -0.00024231       0.00000000
