10
Lattice="16.28999089631971 0.0 0.0 0.0 16.28999089631971 0.0 0.0 0.0 34.61538196595647" Properties=species:S:1:pos:R:3:initial_magmoms:R:1 pbc="T T T"
Si      -1.35612621      -1.35690813      -1.35692373       0.00000000
Si       1.35848826       1.35858719      -1.35668142       0.00000000
Si      -1.35672894       1.35954711       1.35893142       0.00000000
Si       1.35809730      -1.35518139       1.36692758       0.00000000
Si      -2.71322982       0.00014661      -2.71433208       0.00000000
Si      -2.71313208       2.71455650       0.00003462       0.00000000
Si       0.00162900      -2.71435383      -2.71485131       0.00000000
Si       0.00182448       2.71562023      -2.71460900       0.00000000
Si      -2.71573848      -2.71497285       0.00031154       0.00000000
Si       2.71699281       0.00057015      -2.71422823       0.00000000
