10
Lattice="16.28999089631971 0.0 0.0 0.0 16.28999089631971 0.0 0.0 0.0 34.61538196595647" Properties=species:S:1:pos:R:3:initial_magmoms:R:1 pbc="T T T"
Si       0.55443015      -0.68145957       2.21981646       0.00000000
Si       1.77806979       0.98202165      -1.34581219       0.00000000
Si      -1.89770355       1.58901849      -0.06635772       0.00000000
Si      -1.00673829      -1.82112426      -1.37603143       0.00000000
Si      -2.06607699      -0.15179022       2.83330521       0.00000000
Si       0.44821935       2.19547890      -2.84801676       0.00000000
Si      -2.28063258      -0.52435881      -2.85286291       0.00000000
Si      -1.06007175       3.41421200      -1.45346609       0.00000000
Si      -2.98732536      -2.53037457      -0.23843088       0.00000000
Si       2.86125705       2.73904037      -0.08660773       0.00000000
