10
Lattice="16.28999089631971 0.0 0.0 0.0 16.28999089631971 0.0 0.0 0.0 34.61538196595647" Properties=species:S:1:pos:R:3:initial_magmoms:R:1 pbc="T T T"
Si       0.34640685       1.17524205       1.94306632       0.00000000
Si       1.29683061      -1.69192827      -1.01869665       0.00000000
Si      -2.07834336      -1.12601367      -0.04832310       0.00000000
Si      -0.30631716       1.91875023      -1.41649684       0.00000000
Si      -2.14755957      -1.15281072      -2.41819732       0.00000000
Si       0.05172075      -1.69710849      -3.03116685       0.00000000
Si      -1.69329663       2.57624721       1.73814315       0.00000000
Si       2.10023712       2.68537392       1.40988530       0.00000000
Si       0.75973302       3.71555093      -0.23441550       0.00000000
Si       0.92199771      -0.28610127       3.71659718       0.00000000
