10
Lattice="16.28999089631971 0.0 0.0 0.0 16.28999089631971 0.0 0.0 0.0 34.61538196595647" Properties=species:S:1:pos:R:3:initial_magmoms:R:1 pbc="T T T"
Si      -1.36386396      -1.34494964       1.38133451       0.00000000
Si       1.35132066       1.36777356       1.38102297       0.00000000
Si      -1.48103793       1.32871014      -1.37003605       0.00000000
Si       1.30956939      -1.48574900      -1.48195802       0.00000000
Si       2.70132183      -2.70940886       0.02125732       0.00000000
Si      -2.72396493      -2.69653976      -0.00374885       0.00000000
Si       2.69895978       2.73412989      -0.00082039       0.00000000
Si      -2.72543103       2.71295289       0.03536309       0.00000000
Si      -0.00685809      -2.70516514       2.74237748       0.00000000
Si       2.70909216       0.01107720       2.74182363       0.00000000
