10
Lattice="16.28999089631971 0.0 0.0 0.0 16.28999089631971 0.0 0.0 0.0 34.61538196595647" Properties=species:S:1:pos:R:3:initial_magmoms:R:1 pbc="T T T"
Si      -0.03992679      -1.11442822       2.03306637       0.00000000
Si       2.22068538      -0.06773219      -0.71356188       0.00000000
Si      -1.34214124      -0.72176755      -1.77691240       0.00000000
Si      -0.28231547       2.30228199       0.34525401       0.00000000
Si      -1.03852822       1.19773854      -3.16107845       0.00000000
Si       1.95395292       2.89140984       1.25878907       0.00000000
Si      -0.46671990       3.14120070      -1.94199324       0.00000000
Si       3.02620959      -2.19570371      -0.05541926       0.00000000
Si       2.02678551      -2.43361916       2.10236640       0.00000000
Si      -2.02449581      -2.39418107       2.21763568       0.00000000
