10
Lattice="16.28999089631971 0.0 0.0 0.0 16.28999089631971 0.0 0.0 0.0 34.61538196595647" Properties=species:S:1:pos:R:3:initial_magmoms:R:1 pbc="T T T"
Si      -1.35788553      -1.35633798       1.35799681       0.00000000
Si       1.35798327       1.35845568       1.35851604       0.00000000
Si      -1.35830907       1.36158336      -1.35723527       0.00000000
Si       1.35876519      -1.35780408      -1.36062758       0.00000000
Si      -2.71798650      -0.01262475      -2.70628746       0.00000000
Si       2.71490769       2.71437012       0.00079615       0.00000000
Si      -2.71572219       2.71381626       0.00110769       0.00000000
Si      -2.71425609       0.00014661       2.71571669       0.00000000
Si       0.00039096      -2.71378368       2.71620131       0.00000000
Si       2.71653669      -2.71450044       0.00017308       0.00000000
