10
Lattice="16.28999089631971 0.0 0.0 0.0 16.28999089631971 0.0 0.0 0.0 34.61538196595647" Properties=species:S:1:pos:R:3:initial_magmoms:R:1 pbc="T T T"
Si      -0.93757095      -2.13951231       0.22898088       0.00000000
Si      -0.38687121       2.09318355       1.07691975       0.00000000
Si      -1.26237726       0.23319135      -2.07865485       0.00000000
Si       2.13069942      -0.66862305       1.74077392       0.00000000
Si       2.28100725       2.02733937      -1.75520854       0.00000000
Si      -1.68847479      -1.80608859       2.50837044       0.00000000
Si       0.49961430       1.05034662      -3.37057086       0.00000000
Si       1.72362861       3.17272185       0.74083882       0.00000000
Si       0.81814896      -3.75065847       0.16892316       0.00000000
Si      -1.26928422       1.80377541       3.29767082       0.00000000
