10
Lattice="16.28999089631971 0.0 0.0 0.0 16.28999089631971 0.0 0.0 0.0 34.61538196595647" Properties=species:S:1:pos:R:3:initial_magmoms:R:1 pbc="T T T"
Si      -0.63257328       2.12615451      -0.76053498       0.00000000
Si       2.29545648       0.49184397      -0.16328085       0.00000000
Si      -0.65925630      -0.32027769       2.27153186       0.00000000
Si      -1.05176385      -1.48370949      -1.54983536       0.00000000
Si       3.09609369      -1.24142832       1.09907361       0.00000000
Si       0.53778177       3.48656499       0.70504649       0.00000000
Si      -3.25998738      -0.77879232      -1.33535834       0.00000000
Si       2.76741036      -0.34624395      -2.31743189       0.00000000
Si       1.94592195      -3.13323489       0.34695017       0.00000000
Si       2.56015269       2.39697576       1.19385058       0.00000000
