10
Lattice="16.28999089631971 0.0 0.0 0.0 16.28999089631971 0.0 0.0 0.0 34.61538196595647" Properties=species:S:1:pos:R:3:initial_magmoms:R:1 pbc="T T T"
Si       0.34839423      -1.18555362      -2.03362021       0.00000000
Si      -2.30931927      -0.29823732       0.52290025       0.00000000
Si      -0.15602562       2.34253458      -0.79476961       0.00000000
Si       1.78610076      -1.04441706       1.51895842       0.00000000
Si      -2.70247842       1.87110198       1.34979296       0.00000000
Si       2.44915263      -0.47042262      -2.71935131       0.00000000
Si       2.64183075      -2.94797035       0.25300397       0.00000000
Si      -2.41549749       3.06398610      -0.71543111       0.00000000
Si       0.03274290      -3.49040780      -1.92773170       0.00000000
Si      -2.84095971      -1.85256396       2.17602797       0.00000000
