10
Lattice="16.28999089631971 0.0 0.0 0.0 16.28999089631971 0.0 0.0 0.0 34.61538196595647" Properties=species:S:1:pos:R:3:initial_magmoms:R:1 pbc="T T T"
Si      -1.63119915       1.79929566      -0.16380008       0.00000000
Si      -1.25630109      -1.70152308       1.27131984       0.00000000
Si       1.25059959      -0.41032881      -2.10617409       0.00000000
Si       1.69717365       0.88412346       1.77379701       0.00000000
Si      -0.11541465       2.56067397       1.89000091       0.00000000
Si       0.90473031      -1.01955852       3.21962836       0.00000000
Si      -3.02513445      -0.07879473       1.85895090       0.00000000
Si       3.13064478       1.98425232      -0.55547334       0.00000000
Si      -1.91933667      -3.16490265      -0.82346578       0.00000000
Si      -3.88796688       0.68419629      -0.22745780       0.00000000
