10
Lattice="16.28999089631971 0.0 0.0 0.0 16.28999089631971 0.0 0.0 0.0 34.61538196595647" Properties=species:S:1:pos:R:3:initial_magmoms:R:1 pbc="T T T"
Si       1.17035505       1.36041048       1.46558148       0.00000000
Si       0.63257328      -2.12615451       0.76053498       0.00000000
Si      -2.12556807       0.98854236       0.24656550       0.00000000
Si       0.88241301       0.28940814      -2.22075107       0.00000000
Si       2.92802976      -1.63431054       0.59725413       0.00000000
Si      -3.18849057      -0.64653381      -1.05421205       0.00000000
Si      -0.90863991       1.84770954      -2.73935901       0.00000000
Si      -0.41919057      -3.60986400      -0.78930038       0.00000000
Si       3.19272597       0.27082125       1.95438556       0.00000000
Si      -1.91010024       3.15644814      -0.85693887       0.00000000
