10
Lattice="16.28999089631971 0.0 0.0 0.0 16.28999089631971 0.0 0.0 0.0 34.61538196595647" Properties=species:S:1:pos:R:3:initial_magmoms:R:1 pbc="T T T"
Si      -1.30439161       1.41968979       1.32680833       0.00000000
Si       1.44514292      -1.31297400       1.31091640       0.00000000
Si       1.09334408       1.58654826      -1.39537248       0.00000000
Si      -0.83055054      -1.91629044      -1.37835676       0.00000000
Si       1.17757966       0.02914281      -3.16505026       0.00000000
Si      -0.60631869       3.40399098      -1.42635327       0.00000000
Si      -2.63088291       0.05866029       2.68320245       0.00000000
Si       0.08424211      -2.65766463       2.67932552       0.00000000
Si      -2.60910318       2.77218333      -0.16964316       0.00000000
Si      -2.65605096      -2.76718230      -0.07076426       0.00000000
