10
Lattice="16.28999089631971 0.0 0.0 0.0 16.28999089631971 0.0 0.0 0.0 34.61538196595647" Properties=species:S:1:pos:R:3:initial_magmoms:R:1 pbc="T T T"
Si      -0.35087031       0.89549388       2.16387797       0.00000000
Si       1.61331273       1.23320187      -1.32189295       0.00000000
Si      -1.24615242      -1.45595133      -1.49254687       0.00000000
Si      -1.03871556      -1.40431203       2.41338578       0.00000000
Si       1.71344736       0.22988448       3.38642471       0.00000000
Si       0.15278391       2.60491761      -2.84694368       0.00000000
Si      -2.59771743      -0.10713933      -2.87491293       0.00000000
Si      -2.07029610      -3.34241478      -0.26955013       0.00000000
Si       3.48104268       2.02971771       0.16961547       0.00000000
Si       0.14775030      -2.80899873      -2.89474755       0.00000000
