10
Lattice="16.28999089631971 0.0 0.0 0.0 16.28999089631971 0.0 0.0 0.0 34.61538196595647" Properties=species:S:1:pos:R:3:initial_magmoms:R:1 pbc="T T T"
Si       0.14286330       1.31940108       1.95905864       0.00000000
Si      -0.62765370      -2.17308600       0.73263497       0.00000000
Si      -1.97280045       0.62491097      -1.21011981       0.00000000
Si       2.09276001       0.42474546      -1.19343519       0.00000000
Si      -1.86035058      -1.57771908       2.62042049       0.00000000
Si       1.46802222      -3.19868811       0.66987725       0.00000000
Si      -1.25740881       2.67159977      -2.03628560       0.00000000
Si       0.84444102       1.97134642      -3.03757070       0.00000000
Si      -0.71231283       0.15174135       3.77269797       0.00000000
Si      -2.35768428      -0.98916138      -2.90682833       0.00000000
