10
Lattice="16.28999089631971 0.0 0.0 0.0 16.28999089631971 0.0 0.0 0.0 34.61538196595647" Properties=species:S:1:pos:R:3:initial_magmoms:R:1 pbc="T T T"
Si      -2.09276001      -0.42474546       1.19343519       0.00000000
Si       1.88590959       0.61719945       1.46547763       0.00000000
Si       1.15950591      -1.80485055      -1.22465828       0.00000000
Si      -1.24831899       1.54660096      -1.84413550       0.00000000
Si      -0.26845920      -3.63405465      -0.51293102       0.00000000
Si      -1.94989671       0.89465562       3.15249383       0.00000000
Si       2.75294484      -1.50289911       2.18263951       0.00000000
Si       3.28893471      -1.94636178      -0.08456543       0.00000000
Si      -4.06556046       0.20016551      -0.01668462       0.00000000
Si      -0.02454903       3.61959632      -1.87535860       0.00000000
