10
Lattice="16.28999089631971 0.0 0.0 0.0 16.28999089631971 0.0 0.0 0.0 34.61538196595647" Properties=species:S:1:pos:R:3:initial_magmoms:R:1 pbc="T T T"
Si       1.35739683      -1.35687555      -1.35747758       0.00000000
Si      -1.35850618      -1.35764118       1.35647373       0.00000000
Si      -1.35799630       1.35816246      -1.35737373       0.00000000
Si       1.35791811       1.35803214       1.35858527       0.00000000
Si      -0.00197109       2.71389771      -2.71478208       0.00000000
Si       2.71580364      -0.00053757      -2.71370900       0.00000000
Si       2.71516833      -2.71438641       0.00000000       0.00000000
Si       0.00100998      -2.71147050       2.71813977       0.00000000
Si      -2.71533721      -2.71435383      -0.00038077       0.00000000
Si       0.00008145      -2.71510317      -2.71505900       0.00000000
