10
Lattice="16.28999089631971 0.0 0.0 0.0 16.28999089631971 0.0 0.0 0.0 34.61538196595647" Properties=species:S:1:pos:R:3:initial_magmoms:R:1 pbc="T T T"
Si      -0.35627859       0.01062108       2.37624345       0.00000000
Si       1.42796511       1.82920410      -0.71172727       0.00000000
Si      -2.06431767       0.66560940      -1.22254674       0.00000000
Si       1.14938982      -2.11295961      -0.79051192       0.00000000
Si      -2.75216292      -1.63419651      -0.97303893       0.00000000
Si      -0.96111000      -3.19249791      -0.45443099       0.00000000
Si      -2.45195451       1.03622319       2.43900118       0.00000000
Si       0.26845920       3.63405465       0.51293102       0.00000000
Si       2.97569430      -2.04418323       0.85676580       0.00000000
Si      -1.71344736      -0.22988448      -3.38642471       0.00000000
