10
Lattice="16.28999089631971 0.0 0.0 0.0 16.28999089631971 0.0 0.0 0.0 34.61538196595647" Properties=species:S:1:pos:R:3:initial_magmoms:R:1 pbc="T T T"
Si       0.85517613       1.16765973      -1.81363934       0.00000000
Si      -1.14803775      -1.72946043      -1.15227748       0.00000000
Si      -1.52503722       0.50991351       1.79986241       0.00000000
Si       2.24386605      -0.25098003       0.93368122       0.00000000
Si      -1.68019947      -2.88543141       0.80927347       0.00000000
Si      -0.21144420      -0.55938231       3.44419782       0.00000000
Si       0.00247608      -2.67905340       2.40289731       0.00000000
Si      -3.17267298      -1.26376191       1.67618158       0.00000000
Si       0.08465913      -2.32482735      -3.04006300       0.00000000
Si       0.71231283      -0.15174135      -3.77269797       0.00000000
