10
Lattice="16.28999089631971 0.0 0.0 0.0 16.28999089631971 0.0 0.0 0.0 34.61538196595647" Properties=species:S:1:pos:R:3:initial_magmoms:R:1 pbc="T T T"
Si       1.35651837       1.35751738      -1.35768527       0.00000000
Si      -1.35858600      -1.35749848      -1.35751219       0.00000000
Si       1.35749720      -1.35868441       1.36114681       0.00000000
Si      -1.36057338       1.35971653       1.36294681       0.00000000
Si       2.71334941       2.71423003      -0.00083077       0.00000000
Si       2.71387395      -0.00024761      -2.71492054       0.00000000
Si      -0.00143352      -2.71471288      -2.71457439       0.00000000
Si      -0.00099369       2.71507711      -2.71474746       0.00000000
Si       2.71459396      -2.71536448      -0.00131539       0.00000000
Si      -2.71542897      -0.00064020      -2.71467823       0.00000000
