10
Lattice="16.28999089631971 0.0 0.0 0.0 16.28999089631971 0.0 0.0 0.0 34.61538196595647" Properties=species:S:1:pos:R:3:initial_magmoms:R:1 pbc="T T T"
Si      -0.37193328       2.29936608      -0.05555772       0.00000000
Si       0.82372014      -0.41762184      -2.16761643       0.00000000
Si       1.50437565       0.14525793       1.83686627       0.00000000
Si      -1.88732682      -1.14308885       0.99938125       0.00000000
Si       0.01560582       1.33708320       3.21452463       0.00000000
Si      -2.12685498       0.36054657       2.78733596       0.00000000
Si       1.68336040      -2.71791224      -1.60968539       0.00000000
Si      -2.67897195       2.58813891      -0.34989248       0.00000000
Si      -0.48430170      -3.70665008      -0.55066180       0.00000000
Si      -1.02029157      -3.26318741       1.71654314       0.00000000
