10
Lattice="16.28999089631971 0.0 0.0 0.0 16.28999089631971 0.0 0.0 0.0 34.61538196595647" Properties=species:S:1:pos:R:3:initial_magmoms:R:1 pbc="T T T"
Si      -0.14116914       0.01255959       2.32705497       0.00000000
Si      -0.04004082       2.02922901      -1.18575057       0.00000000
Si       1.48876983      -1.19182527      -1.37765836       0.00000000
Si      -2.14246080      -0.97653663      -0.42718867       0.00000000
Si      -0.38753910       0.96228288      -3.27008235       0.00000000
Si      -0.01560582      -1.33708320      -3.21452463       0.00000000
Si      -2.17215747       2.70907587      -0.56762335       0.00000000
Si      -1.03490370      -2.15479885       2.65368590       0.00000000
Si      -3.32232921       0.81726930      -1.31974679       0.00000000
Si      -1.90293264      -2.48017205      -2.21514338       0.00000000
