10
Lattice="16.28999089631971 0.0 0.0 0.0 16.28999089631971 0.0 0.0 0.0 34.61538196595647" Properties=species:S:1:pos:R:3:initial_magmoms:R:1 pbc="T T T"
Si      -1.34069958      -1.35648459      -1.37121989       0.00000000
Si       1.37728692       1.35190710      -1.37253528       0.00000000
Si       1.22060970      -1.48395384       1.38908144       0.00000000
Si      -1.33853301       1.38052863       1.49625072       0.00000000
Si       0.33194133       2.31842538       2.93119757       0.00000000
Si       1.60968006       0.01034415       3.44160166       0.00000000
Si      -2.69878222       2.71562445       0.01097308       0.00000000
Si      -2.70112798      -2.72623413       0.01080001       0.00000000
Si       2.72274318       2.70817992      -0.00543462       0.00000000
Si       2.72890080      -2.70268693      -0.00546923       0.00000000
