10
Lattice="16.28999089631971 0.0 0.0 0.0 16.28999089631971 0.0 0.0 0.0 34.61538196595647" Properties=species:S:1:pos:R:3:initial_magmoms:R:1 pbc="T T T"
Si      -1.57423302      -1.14115034       1.24415164       0.00000000
Si      -0.80760933       0.95558769      -2.01911636       0.00000000
Si       1.15735563       1.60355502       1.35763131       0.00000000
Si       0.73782297      -2.04317162      -1.52736997       0.00000000
Si       1.13282289       2.52727947      -1.59227384       0.00000000
Si      -0.18248058      -2.36481020       2.74736698       0.00000000
Si      -0.86040522      -0.95427960      -3.42900165       0.00000000
Si       2.54283642      -2.68898120       0.07521308       0.00000000
Si       2.54397672       0.35104950       2.74874813       0.00000000
Si      -2.80798875      -2.58760853      -0.14462315       0.00000000
