10
Lattice="16.28999089631971 0.0 0.0 0.0 16.28999089631971 0.0 0.0 0.0 34.61538196595647" Properties=species:S:1:pos:R:3:initial_magmoms:R:1 pbc="T T T"
Si      -1.34763912      -1.36635633       1.38184336       0.00000000
Si       1.36736631       1.35066906       1.38630875       0.00000000
Si       1.34219826      -1.47517353      -1.36765797       0.00000000
Si      -1.46803851       1.45047789      -1.41516761       0.00000000
Si       2.69385761       2.71169856       0.02991463       0.00000000
Si      -2.69895978      -2.73412989       0.00082039       0.00000000
Si      -2.70640431      -0.00855225       2.74247094       0.00000000
Si       0.00850338       2.70581787       2.74326709       0.00000000
Si       2.72881935      -2.72767905       0.02345886       0.00000000
Si       2.72296374      -0.00879660       2.74250555       0.00000000
