10
Lattice="16.28999089631971 0.0 0.0 0.0 16.28999089631971 0.0 0.0 0.0 34.61538196595647" Properties=species:S:1:pos:R:3:initial_magmoms:R:1 pbc="T T T"
Si      -1.35683103      -1.35671265      -1.35685450       0.00000000
Si       1.35850618       1.35764118      -1.35647373       0.00000000
Si       1.35951616      -1.35382932       1.36166604       0.00000000
Si      -1.35966670       1.35744570       1.36173527       0.00000000
Si      -2.71334941      -2.71423003       0.00083077       0.00000000
Si      -2.71434310       0.00084708      -2.71391669       0.00000000
Si       0.00052454      -2.71447763      -2.71408977       0.00000000
Si       0.00050988       2.71580364      -2.71384746       0.00000000
Si      -2.71292587       2.71673217       0.00138462       0.00000000
Si       2.71590301       0.00076563      -2.71395131       0.00000000
