10
Lattice="16.28999089631971 0.0 0.0 0.0 16.28999089631971 0.0 0.0 0.0 34.61538196595647" Properties=species:S:1:pos:R:3:initial_magmoms:R:1 pbc="T T T"
Si       0.95527818      -2.09254824       0.04752695       0.00000000
Si       0.94573224       1.72291185       1.37703528       0.00000000
Si      -2.15436879      -0.53281332       1.06798898       0.00000000
Si      -0.29592414       0.33746364      -2.44613195       0.00000000
Si      -0.04106709      -3.17479068       1.78203547       0.00000000
Si       2.60479773       2.54813067      -0.22842703       0.00000000
Si      -2.00406096       2.16314910      -2.42799348       0.00000000
Si      -0.73513512       3.37730796       1.71533160       0.00000000
Si       3.20726384      -2.15060580      -0.27086552       0.00000000
Si      -2.34810576      -2.88601785       1.48770072       0.00000000
