10
Lattice="16.28999089631971 0.0 0.0 0.0 16.28999089631971 0.0 0.0 0.0 34.61538196595647" Properties=species:S:1:pos:R:3:initial_magmoms:R:1 pbc="T T T"
Si      -1.39686750      -1.76979447       0.54726949       0.00000000
Si       2.12107203      -0.55428354       0.80913501       0.00000000
Si       0.22962384      -0.60289290      -2.31667035       0.00000000
Si      -1.21492449       2.04217956       0.50140409       0.00000000
Si      -3.41923842      -0.68020524       0.05846541       0.00000000
Si      -3.10234905       1.45191141      -0.79719269       0.00000000
Si       0.27533358       3.57244587      -0.47786562       0.00000000
Si       2.99244598      -2.31847425      -0.50022716       0.00000000
Si       1.98674469      -1.47212730       2.93254757       0.00000000
Si       1.59352038       1.04444964      -3.33266699       0.00000000
