10
Lattice="16.28999089631971 0.0 0.0 0.0 16.28999089631971 0.0 0.0 0.0 34.61538196595647" Properties=species:S:1:pos:R:3:initial_magmoms:R:1 pbc="T T T"
Si      -1.41389055      -1.13450076       1.38499751       0.00000000
Si       0.66179984      -1.82464290      -1.32181752       0.00000000
Si       1.28453559       1.65198586       1.18064549       0.00000000
Si      -1.80501345       0.64580958      -1.60258304       0.00000000
Si      -0.23055237      -0.43380270      -3.13999148       0.00000000
Si       0.02052540      -2.41355898       2.66945390       0.00000000
Si      -2.68284897      -2.54448171      -0.05880538       0.00000000
Si      -2.54283642       2.68898120      -0.07521308       0.00000000
Si       2.69860859       0.31575311       2.64969543       0.00000000
Si      -2.72531700       0.32417100       2.67215390       0.00000000
