10
Lattice="16.28999089631971 0.0 0.0 0.0 16.28999089631971 0.0 0.0 0.0 34.61538196595647" Properties=species:S:1:pos:R:3:initial_magmoms:R:1 pbc="T T T"
Si      -0.39488589      -1.85468166       1.40140452       0.00000000
Si       0.71868222       1.73884347       1.44038146       0.00000000
Si       2.29293153      -0.46851669      -0.53747334       0.00000000
Si      -1.09107162       0.25927164      -2.13677411       0.00000000
Si      -1.10271897      -2.03577759      -2.54250123       0.00000000
Si       0.68711220      -3.58746688       0.07366157       0.00000000
Si       0.35287398      -0.93848319       3.54254017       0.00000000
Si       0.93936285       3.57141960      -0.02274232       0.00000000
Si      -0.41963040       1.43190729       3.45004782       0.00000000
Si      -3.34305728       0.31732920      -1.81838165       0.00000000
