10
Lattice="16.28999089631971 0.0 0.0 0.0 16.28999089631971 0.0 0.0 0.0 34.61538196595647" Properties=species:S:1:pos:R:3:initial_magmoms:R:1 pbc="T T T"
Si       1.35775521       1.35690489      -1.35685450       0.00000000
Si      -1.35708732      -1.35790182      -1.35678527       0.00000000
Si       1.35715248      -1.35741312       1.36083527       0.00000000
Si      -1.35876519       1.35787402       1.36125066       0.00000000
Si       0.00091224       2.71376317      -2.71402054       0.00000000
Si      -2.71319724       2.71478130       0.00045000       0.00000000
Si      -2.71427238      -0.00066789      -2.71391669       0.00000000
Si       2.71490769      -0.00030951      -2.71391669       0.00000000
Si      -2.71236645      -2.71668330       0.00034615       0.00000000
Si       0.00042354      -2.71529865      -2.71415900       0.00000000
