10
Lattice="16.28999089631971 0.0 0.0 0.0 16.28999089631971 0.0 0.0 0.0 34.61538196595647" Properties=species:S:1:pos:R:3:initial_magmoms:R:1 pbc="T T T"
Si       2.12942880      -0.14151123       1.14009286       0.00000000
Si      -1.42796511      -1.82920410       0.71172727       0.00000000
Si      -1.15950591       1.80485055       1.22465828       0.00000000
Si       0.33963021      -0.02937087      -2.50508198       0.00000000
Si       0.72640368       2.42205000       2.69013591       0.00000000
Si       2.91162573      -2.22604479       0.55249642       0.00000000
Si      -3.49228278      -1.16359470      -0.51081948       0.00000000
Si       1.59343893       0.30195144       3.40729780       0.00000000
Si       2.09805426      -1.85676678      -2.55600123       0.00000000
Si      -0.27857529      -3.94216371      -0.07878465       0.00000000
