10
Lattice="16.28999089631971 0.0 0.0 0.0 16.28999089631971 0.0 0.0 0.0 34.61538196595647" Properties=species:S:1:pos:R:3:initial_magmoms:R:1 pbc="T T T"
Si       0.78219693      -2.08453356      -0.58759644       0.00000000
Si      -0.53598987       0.44346267       2.26720494       0.00000000
Si      -2.12942880       0.14151123      -1.14009286       0.00000000
Si       2.16766210       0.98873784      -1.05902359       0.00000000
Si      -1.40302512       2.56356123       1.55004306       0.00000000
Si       0.48430170       3.70665008       0.55066180       0.00000000
Si      -0.58169961      -3.73187610       0.42840021       0.00000000
Si      -3.28893471       1.94636178       0.08456543       0.00000000
Si       1.30802184       3.28902823      -1.61695463       0.00000000
Si       1.32818886       0.21206322       3.72056718       0.00000000
