10
Lattice="16.28999089631971 0.0 0.0 0.0 16.28999089631971 0.0 0.0 0.0 34.61538196595647" Properties=species:S:1:pos:R:3:initial_magmoms:R:1 pbc="T T T"
Si       1.98456902       1.27975284      -0.18456932       0.00000000
Si      -0.71079786      -1.55292570      -1.72239314       0.00000000
Si      -1.57446108       1.07961228       1.53740843       0.00000000
Si       0.89235221      -1.39084020       1.81817395       0.00000000
Si       0.23055237       0.43380270       3.13999148       0.00000000
Si      -2.28327156      -2.46638745      -0.16691547       0.00000000
Si      -0.81445113      -3.01956327       1.56482383       0.00000000
Si      -3.42951741      -0.54529146       1.59590846       0.00000000
Si       2.02449581       2.39418107      -2.21763568       0.00000000
Si      -3.17268927       2.16850429      -0.36422325       0.00000000
