10
Lattice="16.28999089631971 0.0 0.0 0.0 16.28999089631971 0.0 0.0 0.0 34.61538196595647" Properties=species:S:1:pos:R:3:initial_magmoms:R:1 pbc="T T T"
Si       1.37289514       1.33302699      -1.35241681       0.00000000
Si      -1.35849613       1.35164646       1.35990066       0.00000000
Si       1.35611644      -1.36422234       1.36000450       0.00000000
Si      -1.38760256      -1.35785295      -1.35359027       0.00000000
Si      -2.71239970       2.70889668       0.00045000       0.00000000
Si       2.71365988       2.70829395      -0.00058846       0.00000000
Si       0.00066463       2.70958086       2.71717054       0.00000000
Si      -2.71477804      -0.00493587       2.71710131       0.00000000
Si       2.71506082      -0.00482184       2.71751670       0.00000000
Si      -2.71409386      -2.71888245       0.00280385       0.00000000
