10
Lattice="16.28999089631971 0.0 0.0 0.0 16.28999089631971 0.0 0.0 0.0 34.61538196595647" Properties=species:S:1:pos:R:3:initial_magmoms:R:1 pbc="T T T"
Si      -1.23465331       1.24673886      -1.53096305       0.00000000
Si      -1.37289514      -1.33302699       1.35241681       0.00000000
Si       1.34076474       1.37526696       1.35182834       0.00000000
Si       1.30176648      -1.41890787      -1.44408531       0.00000000
Si      -2.06242477      -0.70657875      -2.75433506       0.00000000
Si       2.21197023       0.29279646      -2.91235437       0.00000000
Si       0.57433653       2.22079941      -2.88182358       0.00000000
Si      -0.36276201      -2.52402147      -2.72335428       0.00000000
Si       2.69871543      -2.70071910      -0.01425808       0.00000000
Si      -0.01677870      -2.69724933       2.71242131       0.00000000
