10
Lattice="16.28999089631971 0.0 0.0 0.0 16.28999089631971 0.0 0.0 0.0 34.61538196595647" Properties=species:S:1:pos:R:3:initial_magmoms:R:1 pbc="T T T"
Si      -1.10515174      -1.56120102      -1.38122374       0.00000000
Si       0.00915987      -0.11300373       2.36651653       0.00000000
Si       1.63577827       1.12143618      -1.36443527       0.00000000
Si       2.11224448      -1.46530179       2.06283561       0.00000000
Si       3.31763932       0.42855732       1.19530442       0.00000000
Si      -2.89156201      -2.32367076       0.14881161       0.00000000
Si       0.26053737       2.40458319      -2.82292059       0.00000000
Si      -2.44790386      -0.28527048      -2.81907828       0.00000000
Si       0.46581092       2.11027176       3.17703615       0.00000000
Si       2.25978301       3.13158960      -0.20520010       0.00000000
