10
Lattice="16.28999089631971 0.0 0.0 0.0 16.28999089631971 0.0 0.0 0.0 34.61538196595647" Properties=species:S:1:pos:R:3:initial_magmoms:R:1 pbc="T T T"
Si      -1.37524090       1.28314701      -1.45848532       0.00000000
Si       0.62400474       2.01015342       1.15923517       0.00000000
Si      -1.63577827      -1.12143618       1.36443527       0.00000000
Si       1.35475785      -1.42550532      -1.43342377       0.00000000
Si       1.68186105      -0.69287886       2.55973970       0.00000000
Si       2.60459181       2.71940373       0.02163463       0.00000000
Si      -2.77914635       2.57052942       0.00505385       0.00000000
Si       0.95154777       1.38917862       3.39542471       0.00000000
Si      -2.74093001      -2.68263720      -0.01678847       0.00000000
Si      -0.01032786       2.64981285      -2.81869751       0.00000000
