10
Lattice="16.28999089631971 0.0 0.0 0.0 16.28999089631971 0.0 0.0 0.0 34.61538196595647" Properties=species:S:1:pos:R:3:initial_magmoms:R:1 pbc="T T T"
Si       0.36313668      -2.29327362       0.45290791       0.00000000
Si      -1.28015942       0.36698112       1.99177019       0.00000000
Si       1.61129277       1.76536359      -0.22458472       0.00000000
Si      -0.78646817      -0.18168237      -2.26651263       0.00000000
Si       0.76545081       0.11036475       3.30549390       0.00000000
Si      -0.17220159       3.35645676      -0.62048107       0.00000000
Si       1.58658084      -2.14731522       2.46333580       0.00000000
Si       1.33504695       0.21866067      -3.41255934       0.00000000
Si      -2.69160389      -1.52717121       1.99253173       0.00000000
Si       3.01250970       1.14859161      -2.04175483       0.00000000
