10
Lattice="16.28999089631971 0.0 0.0 0.0 16.28999089631971 0.0 0.0 0.0 34.61538196595647" Properties=species:S:1:pos:R:3:initial_magmoms:R:1 pbc="T T T"
Si       2.30944959       0.13150917      -0.27249244       0.00000000
Si      -1.02664467       1.49827275       1.45834686       0.00000000
Si      -0.22068063      -1.83257613       1.46312378       0.00000000
Si      -0.52981596       0.03429045      -2.37527422       0.00000000
Si       2.87052606      -2.12690385       0.20689625       0.00000000
Si      -2.63290057       1.38658851      -2.07159331       0.00000000
Si      -3.21001129       0.50018445       1.68860851       0.00000000
Si      -0.93936285      -3.57141960       0.02274232       0.00000000
Si       1.97475525      -2.23933743       2.37015114       0.00000000
Si       0.67557888       1.92814956      -3.24280541       0.00000000
