10
Lattice="16.28999089631971 0.0 0.0 0.0 16.28999089631971 0.0 0.0 0.0 34.61538196595647" Properties=species:S:1:pos:R:3:initial_magmoms:R:1 pbc="T T T"
Si       0.78646817       0.18168237       2.26651263       0.00000000
Si      -0.45665105      -2.22327549      -0.81051962       0.00000000
Si       2.12151512       0.40034304      -1.14604671       0.00000000
Si      -2.43268737       0.25324434       0.11724236       0.00000000
Si      -1.04722220       3.32651574      -0.35418479       0.00000000
Si       1.14960485      -2.11159125       2.71942054       0.00000000
Si       2.39776094       1.94704596       2.04192791       0.00000000
Si      -2.11571655      -3.04849431       0.79494269       0.00000000
Si      -0.46581092      -2.11027176      -3.17703615       0.00000000
Si       2.85182840      -1.68171444      -1.98173173       0.00000000
