10
Lattice="16.28999089631971 0.0 0.0 0.0 16.28999089631971 0.0 0.0 0.0 34.61538196595647" Properties=species:S:1:pos:R:3:initial_magmoms:R:1 pbc="T T T"
Si       0.08423559      -1.55740545      -1.76967778       0.00000000
Si       1.66452849       1.10511360       1.27926896       0.00000000
Si      -1.09334408      -1.58654826       1.39537248       0.00000000
Si      -1.69966276       1.81744272      -0.03098078       0.00000000
Si      -2.39773569      -0.16685847       2.72218081       0.00000000
Si       0.36276201       2.52402147       2.72335428       0.00000000
Si       2.57473224       2.81681793      -0.18900009       0.00000000
Si      -2.17755109       2.28576393      -2.27603187       0.00000000
Si       0.35179884      -2.89952226       2.70628888       0.00000000
Si      -1.92389461      -3.50283870       0.01701572       0.00000000
