10
Lattice="16.28999089631971 0.0 0.0 0.0 16.28999089631971 0.0 0.0 0.0 34.61538196595647" Properties=species:S:1:pos:R:3:initial_magmoms:R:1 pbc="T T T"
Si       1.35713130       1.35768318      -1.35640450       0.00000000
Si      -1.35804874      -1.35739683      -1.35661219       0.00000000
Si       1.35799467      -1.35663120       1.35955450       0.00000000
Si      -1.35709676       1.35668007       1.36246220       0.00000000
Si       2.69902005       0.00972513       2.72305516       0.00000000
Si       2.71205205      -2.71524978       0.00128077       0.00000000
Si       2.71456071      -0.00013032      -2.71336285       0.00000000
Si      -0.00016127      -2.71505430      -2.71360515       0.00000000
Si      -0.00072002       2.71511687      -2.71360515       0.00000000
Si       2.71465845       2.71427957       0.00100385       0.00000000
