10
Lattice="16.28999089631971 0.0 0.0 0.0 16.28999089631971 0.0 0.0 0.0 34.61538196595647" Properties=species:S:1:pos:R:3:initial_magmoms:R:1 pbc="T T T"
Si       1.30973229       1.98310129      -0.28855399       0.00000000
Si       1.78349436      -1.59109317       0.39589634       0.00000000
Si      -0.95661233       0.62216397       2.16931258       0.00000000
Si      -1.66148878      -0.21162339      -2.00021635       0.00000000
Si       2.10095388      -0.13823694      -1.95653171       0.00000000
Si       0.17220159      -3.35645676       0.62048107       0.00000000
Si      -1.84047352       2.65154678       1.44633531       0.00000000
Si       3.37813875       1.44238243       0.69175418       0.00000000
Si       3.12189705      -0.48749454       2.06595100       0.00000000
Si       0.22773420       3.71588651       1.03918896       0.00000000
