10
Lattice="10.86 0.0 0.0 0.0 10.86 0.0 0.0 0.0 10.86" Properties=species:S:1:pos:R:3:initial_magmoms:R:1 pbc="T T T"
Si       1.41284256       1.48411674       0.84259482       0.00000000
Si      -1.30546974       1.27291146      -1.41742548       0.00000000
Si      -1.30546974      -1.44208854       1.29757452       0.00000000
Si       1.40953026      -1.44208854      -1.41742548       0.00000000
Si       2.68649250       0.09081132       2.38576824       0.00000000
Si      -2.66296974       2.63041146      -0.05992548       0.00000000
Si      -2.66296974      -0.08458854       2.65507452       0.00000000
Si      -2.66296974      -0.08458854      -2.77492548       0.00000000
Si       0.05203026      -2.79958854       2.65507452       0.00000000
Si      -2.66296974      -2.79958854      -0.05992548       0.00000000
