10
Lattice="10.86 0.0 0.0 0.0 10.86 0.0 0.0 0.0 10.86" Properties=species:S:1:pos:R:3:initial_magmoms:R:1 pbc="T T T"
Si       1.28715978      -1.37521266      -1.22748408       0.00000000
Si      -1.42784022       1.33978734      -1.22748408       0.00000000
Si       1.32320412       0.85005564       1.76218704       0.00000000
Si      -1.42784022      -1.37521266       1.48751592       0.00000000
Si      -0.02602056       2.50932246       2.55611820       0.00000000
Si       2.67313470       2.45200338       0.10391934       0.00000000
Si       2.49541080      -2.71507602       0.04159380       0.00000000
Si       2.64465978      -0.01771266      -2.58498408       0.00000000
Si      -0.07034022       2.69728734      -2.58498408       0.00000000
Si      -0.07034022      -2.73271266      -2.58498408       0.00000000
