10
Lattice="10.86 0.0 0.0 0.0 10.86 0.0 0.0 0.0 10.86" Properties=species:S:1:pos:R:3:initial_magmoms:R:1 pbc="T T T"
Si      -1.20825102       1.33986336      -1.26907788       0.00000000
Si      -1.20825102      -1.37513664       1.44592212       0.00000000
Si       1.50674898      -1.37513664      -1.26907788       0.00000000
Si       2.64139092      -0.22724550       2.53329048       0.00000000
Si      -2.56575102      -0.01763664      -2.62657788       0.00000000
Si      -2.49541080       2.71507602      -0.04159380       0.00000000
Si      -2.56575102      -2.73263664       0.08842212       0.00000000
Si       0.14924898       2.69736336      -2.62657788       0.00000000
Si       2.90585364       2.41956456       0.14670774       0.00000000
Si       0.14924898      -2.73263664      -2.62657788       0.00000000
