10
Lattice="10.86 0.0 0.0 0.0 10.86 0.0 0.0 0.0 10.86" Properties=species:S:1:pos:R:3:initial_magmoms:R:1 pbc="T T T"
Si      -1.27552872       1.29508758      -1.25194080       0.00000000
Si      -1.67553510      -0.85716894       1.25562234       0.00000000
Si       1.43947128      -1.41991242      -1.25194080       0.00000000
Si       1.43947128       1.29508758       1.46305920       0.00000000
Si      -2.63302872      -0.06241242      -2.60944080       0.00000000
Si       0.08197128       2.65258758      -2.60944080       0.00000000
Si      -2.69871000      -2.56025586       0.34849740       0.00000000
Si      -2.63302872       2.65258758       0.10555920       0.00000000
Si       0.08197128      -2.77741242      -2.60944080       0.00000000
Si       2.79697128      -0.06241242      -2.60944080       0.00000000
