10
Lattice="16.28999089631971 0.0 0.0 0.0 16.28999089631971 0.0 0.0 0.0 34.279985188174585" Properties=species:S:1:pos:R:3:initial_magmoms:R:1 pbc="T T T"
Si      -1.30005603       1.39820491       1.36505034       0.00000000
Si       0.86051925       1.85341267      -1.18595480       0.00000000
Si       1.44412479      -1.33149164       1.33340304       0.00000000
Si      -1.62528588      -1.01145913      -1.47078843       0.00000000
Si      -2.61303003      -2.64077746      -0.03661790       0.00000000
Si      -2.73377151       2.62344097      -0.08905945       0.00000000
Si      -2.64443715       0.03766085       2.72379659       0.00000000
Si      -3.49638786       0.64475983      -1.39064177       0.00000000
Si       0.07087779      -2.68114408       2.71824323       0.00000000
Si      -0.91896777       3.46683943      -1.38779653       0.00000000
