10
Lattice="16.28999089631971 0.0 0.0 0.0 16.28999089631971 0.0 0.0 0.0 34.279985188174585" Properties=species:S:1:pos:R:3:initial_magmoms:R:1 pbc="T T T"
Si      -1.35617508       1.35757442      -1.35567133       0.00000000
Si       1.35790182       1.35648625       1.35676829       0.00000000
Si      -1.35643572      -1.35849379       1.35656261       0.00000000
Si       1.35913986      -1.36123051      -1.36122469       0.00000000
Si      -2.70884781      -0.01626641      -2.70068844       0.00000000
Si      -2.71313208       2.71215634      -0.00140548       0.00000000
Si      -2.71423980      -0.00109783       2.71305666       0.00000000
Si       0.00065160       2.71381792       2.71350230       0.00000000
Si       2.71397916       2.71446952      -0.00034280       0.00000000
Si       2.71586880      -0.00112239       2.71377654       0.00000000
