10
Lattice="16.28999089631971 0.0 0.0 0.0 16.28999089631971 0.0 0.0 0.0 34.279985188174585" Properties=species:S:1:pos:R:3:initial_magmoms:R:1 pbc="T T T"
Si      -2.14853697      -0.41183468       0.81901786       0.00000000
Si       0.47548881       2.29747644       0.25233511       0.00000000
Si       0.11574045      -0.11612115      -2.44697527       0.00000000
Si       1.38627900      -1.12885532       1.68445085       0.00000000
Si      -1.75247820      -2.74980806       0.48012574       0.00000000
Si       3.28223952      -0.32911406       0.63250036       0.00000000
Si       2.89650861       1.95849783       0.31115960       0.00000000
Si      -0.49062222       3.10853925      -1.76545450       0.00000000
Si       0.28784430      -3.83296274      -0.02063656       0.00000000
Si      -2.34970218       0.20683739       3.15708556       0.00000000
