10
Lattice="16.28999089631971 0.0 0.0 0.0 16.28999089631971 0.0 0.0 0.0 34.279985188174585" Properties=species:S:1:pos:R:3:initial_magmoms:R:1 pbc="T T T"
Si       2.19923145      -0.55429983      -0.50662418       0.00000000
Si       0.09962964       1.92003714      -1.32978993       0.00000000
Si       0.12908196       1.23487974       1.99238813       0.00000000
Si      -1.84298544      -1.78143856      -0.01868260       0.00000000
Si      -3.01172778      -0.01524744       1.12585818       0.00000000
Si       1.74110778      -1.90223543      -2.36309210       0.00000000
Si      -2.10178467      -1.73919859      -2.42812127       0.00000000
Si       2.08753092       3.03582069      -0.74846961       0.00000000
Si       3.19378482      -1.50527745       1.34840397       0.00000000
Si       0.20367387       1.25509563      -3.58205477       0.00000000
