10
Lattice="16.28999089631971 0.0 0.0 0.0 16.28999089631971 0.0 0.0 0.0 34.279985188174585" Properties=species:S:1:pos:R:3:initial_magmoms:R:1 pbc="T T T"
Si      -0.40376883      -0.97265977       2.09049751       0.00000000
Si       1.71721361      -1.25570066      -0.98894385       0.00000000
Si       0.93645020       2.16694956       0.03907920       0.00000000
Si      -2.03871372      -0.34391448      -1.18625955       0.00000000
Si      -0.99996914      -3.11083844       1.16017247       0.00000000
Si       2.69736662       0.32918018      -2.45578523       0.00000000
Si      -2.34061629      -2.71681592      -0.90204403       0.00000000
Si       1.66200680       2.41398741      -2.38136334       0.00000000
Si      -0.65902172       3.61118838       1.11372306       0.00000000
Si      -1.99043016       0.35619388       3.28800090       0.00000000
