10
Lattice="16.28999089631971 0.0 0.0 0.0 16.28999089631971 0.0 0.0 0.0 34.279985188174585" Properties=species:S:1:pos:R:3:initial_magmoms:R:1 pbc="T T T"
Si      -1.96460658      -1.19964447      -0.42208969       0.00000000
Si       1.75492170      -1.50037416      -0.43830414       0.00000000
Si      -0.10404423       0.66494151       2.25226485       0.00000000
Si      -0.01568727       1.78644285      -1.54493124       0.00000000
Si      -3.34604745       0.76479921      -0.33872072       0.00000000
Si      -1.31134500      -2.09867328      -2.59698457       0.00000000
Si       1.10967480      -2.43765189      -2.53816008       0.00000000
Si       1.66009761       3.22893864      -0.69475285       0.00000000
Si       3.69229140      -0.25757748       0.15847646       0.00000000
Si       1.53743391      -3.15733106       1.21896267       0.00000000
