10
Lattice="16.28999089631971 0.0 0.0 0.0 16.28999089631971 0.0 0.0 0.0 34.279985188174585" Properties=species:S:1:pos:R:3:initial_magmoms:R:1 pbc="T T T"
Si       1.36788759       1.23988077      -1.45312938       0.00000000
Si       1.54111545      -1.30776120       1.39145966       0.00000000
Si      -0.77858055       1.02398940       2.10897443       0.00000000
Si      -1.36003581      -1.53626103      -1.42817354       0.00000000
Si      -0.32785254      -2.02404879       2.75278719       0.00000000
Si      -2.26782864      -0.65658474       2.84904544       0.00000000
Si       2.34030285       3.00131847      -0.13334922       0.00000000
Si      -0.01286910       2.53135197      -2.84901116       0.00000000
Si       2.71316466      -0.17992305      -2.84290932       0.00000000
Si      -2.71365336      -0.18985995      -2.85086228       0.00000000
