10
Lattice="16.28999089631971 0.0 0.0 0.0 16.28999089631971 0.0 0.0 0.0 34.279985188174585" Properties=species:S:1:pos:R:3:initial_magmoms:R:1 pbc="T T T"
Si      -1.15478181      -0.32027769      -1.96966049       0.00000000
Si       2.13658011      -0.97189398      -0.31530748       0.00000000
Si      -1.63426167      -0.84675420       1.53797239       0.00000000
Si      -0.05634711       2.38382973      -0.26457307       0.00000000
Si      -3.19510431       0.76287699      -1.46889819       0.00000000
Si      -1.21212261      -2.67556734      -2.14891063       0.00000000
Si       3.23565012      -0.76308876       1.71866230       0.00000000
Si      -3.69898659      -0.19841220       0.61392060       0.00000000
Si       0.24506676       0.34997436      -3.73367523       0.00000000
Si       2.31873489       1.09876050       2.86625400       0.00000000
