10
Lattice="16.28999089631971 0.0 0.0 0.0 16.28999089631971 0.0 0.0 0.0 34.279985188174585" Properties=species:S:1:pos:R:3:initial_magmoms:R:1 pbc="T T T"
Si      -1.46232072      -1.10183931      -1.57088120       0.00000000
Si      -0.83020356       1.97151354       1.18238591       0.00000000
Si       1.27886274       1.51288488      -1.56875584       0.00000000
Si      -0.47112309      -2.07251154       2.10777463       0.00000000
Si      -2.71717200      -2.65823804      -0.28020476       0.00000000
Si      -2.53390950       2.94559038      -0.19488182       0.00000000
Si       0.05784579      -2.39857870      -3.10336879       0.00000000
Si       2.69110800       2.98502847      -0.26614995       0.00000000
Si       0.80252685       3.80128779       1.11245470       0.00000000
Si      -2.66225841       0.30638232      -3.12883884       0.00000000
