10
Lattice="16.28999089631971 0.0 0.0 0.0 16.28999089631971 0.0 0.0 0.0 34.279985188174585" Properties=species:S:1:pos:R:3:initial_magmoms:R:1 pbc="T T T"
Si      -0.45071172       2.23565589      -0.41156573       0.00000000
Si       0.05216058      -0.93795702      -2.17064416       0.00000000
Si      -1.95313842      -0.33107796       1.30545113       0.00000000
Si       1.67317848      -0.77201568       1.57770292       0.00000000
Si      -1.56740751      -2.61868985       1.62679189       0.00000000
Si      -1.91444967      -0.13830210      -3.13830012       0.00000000
Si      -1.30789152       0.60619977       3.40530707       0.00000000
Si       1.03444758       3.50674830       0.81915498       0.00000000
Si       0.52628103      -2.59718705       2.65580906       0.00000000
Si      -0.47664540      -3.22899470      -2.08425854       0.00000000
