10
Lattice="16.28999089631971 0.0 0.0 0.0 16.28999089631971 0.0 0.0 0.0 34.279985188174585" Properties=species:S:1:pos:R:3:initial_magmoms:R:1 pbc="T T T"
Si      -1.75492170       1.50037416       0.43830414       0.00000000
Si      -0.21748779      -1.65695690       1.65726681       0.00000000
Si       1.93736970       1.24279668       0.59678060       0.00000000
Si      -0.64524690      -0.93727773      -2.09985595       0.00000000
Si       0.24063588      -0.30902130       3.51373473       0.00000000
Si       1.64714706       1.51316181       2.92010789       0.00000000
Si      -0.25951599      -3.22488962      -1.77851519       0.00000000
Si       1.30789152      -0.60619977      -3.40530707       0.00000000
Si      -3.71952828       0.30072969       0.01621444       0.00000000
Si       2.98107000      -1.37821545      -1.82760415       0.00000000
