10
Lattice="16.28999089631971 0.0 0.0 0.0 16.28999089631971 0.0 0.0 0.0 34.279985188174585" Properties=species:S:1:pos:R:3:initial_magmoms:R:1 pbc="T T T"
Si      -0.80148429      -0.30910275      -2.24623156       0.00000000
Si      -0.84380571       2.00777508       1.06408561       0.00000000
Si       1.99664901      -1.19397555       0.78652042       0.00000000
Si      -1.71797598       0.09062127       2.31987671       0.00000000
Si      -2.66132988       1.10205108      -1.82249643       0.00000000
Si       0.96949935      -2.80618545       2.25760022       0.00000000
Si       3.09770640      -1.70398287      -1.38696898       0.00000000
Si       0.94454307       2.83516047       2.40804145       0.00000000
Si      -3.69641277      -0.84388716       1.28227891       0.00000000
Si      -0.40622373      -1.31872437       3.79158586       0.00000000
