10
Lattice="16.28999089631971 0.0 0.0 0.0 16.28999089631971 0.0 0.0 0.0 34.279985188174585" Properties=species:S:1:pos:R:3:initial_magmoms:R:1 pbc="T T T"
Si      -1.35632169      -1.35628911      -1.35786525       0.00000000
Si       1.35910728       1.35785295      -1.35759101       0.00000000
Si      -1.35909099       1.36047564       1.35834517       0.00000000
Si       1.36228383      -1.35658233       1.36029913       0.00000000
Si      -2.71379997       0.00122175      -2.71518202       0.00000000
Si       0.00107514      -2.71397916      -2.71514774       0.00000000
Si      -2.71448415      -2.71500543       0.00037708       0.00000000
Si       2.71453302       2.71552671       0.00013712       0.00000000
Si      -2.71437012       2.71568961      -0.00078844       0.00000000
Si       2.71710684      -2.71370223      -0.00092556       0.00000000
