10
Lattice="16.28999089631971 0.0 0.0 0.0 16.28999089631971 0.0 0.0 0.0 34.279985188174585" Properties=species:S:1:pos:R:3:initial_magmoms:R:1 pbc="T T T"
Si       1.35482301      -1.35711990      -1.36122469       0.00000000
Si      -1.36228383       1.35658233      -1.36029913       0.00000000
Si      -1.36213722      -1.36099692       1.37287989       0.00000000
Si       1.34887716       1.35739683       1.39049982       0.00000000
Si      -2.65432518       0.08382834       2.71912422       0.00000000
Si       2.71399545       2.71143792       0.00150832       0.00000000
Si       2.71235016      -2.71326240      -0.00023996       0.00000000
Si       2.71078632       0.00000000      -2.71785586       0.00000000
Si      -0.00317655       2.71443528      -2.71789014       0.00000000
Si      -0.00335574      -2.71450044      -2.71795870       0.00000000
