10
Lattice="16.28999089631971 0.0 0.0 0.0 16.28999089631971 0.0 0.0 0.0 34.279985188174585" Properties=species:S:1:pos:R:3:initial_magmoms:R:1 pbc="T T T"
Si       1.48515930       1.27109241       1.23072072       0.00000000
Si       0.45071172      -2.23565589       0.41156573       0.00000000
Si      -2.08070541       1.03930200       0.49966534       0.00000000
Si       0.46776735       0.69796134      -2.23440496       0.00000000
Si      -1.50242670      -2.56673385       1.71701686       0.00000000
Si       0.37093959       2.98924758      -1.71184058       0.00000000
Si      -1.73529225       3.03039612      -0.71103585       0.00000000
Si       0.50287230      -3.17361291      -1.75907842       0.00000000
Si       1.80944433       3.27707559       0.09852073       0.00000000
Si      -1.27117386      -0.25919019      -3.58867081       0.00000000
