10
Lattice="16.28999089631971 0.0 0.0 0.0 16.28999089631971 0.0 0.0 0.0 34.279985188174585" Properties=species:S:1:pos:R:3:initial_magmoms:R:1 pbc="T T T"
Si      -1.35006959      -1.36085031       1.39532644       0.00000000
Si       1.37117817       1.35149985       1.39361244       0.00000000
Si       1.27902564      -1.49099112      -1.41111924       0.00000000
Si      -1.30640587       1.38489435      -1.61555490       0.00000000
Si      -2.71525697      -2.70475902       0.01197058       0.00000000
Si      -2.70589585       2.71635750      -0.01305725       0.00000000
Si       2.73010626       2.69234604       0.01213512       0.00000000
Si       2.71274112      -2.71622718       0.04299055       0.00000000
Si      -2.70409832      -0.00573408       2.75644829       0.00000000
Si       0.00990432       2.70933651       2.75627689       0.00000000
