10
Lattice="16.28999089631971 0.0 0.0 0.0 16.28999089631971 0.0 0.0 0.0 34.279985188174585" Properties=species:S:1:pos:R:3:initial_magmoms:R:1 pbc="T T T"
Si       2.20770225      -0.00514764      -0.74607001       0.00000000
Si      -0.22556763       2.21592870       0.75049214       0.00000000
Si      -1.45091772      -0.06066396      -1.84865207       0.00000000
Si      -0.35784243      -1.96439481       1.27134252       0.00000000
Si       2.09991132       1.68982686      -2.31492869       0.00000000
Si       1.08732492       3.30507810      -0.92970800       0.00000000
Si       2.40360579      -1.78717590      -2.19056084       0.00000000
Si      -3.57427035       0.51225534      -1.08311102       0.00000000
Si       0.87350238       2.42473392       2.78446191       0.00000000
Si      -1.14113079      -2.03385537      -3.00011742       0.00000000
