10
Lattice="16.28999089631971 0.0 0.0 0.0 16.28999089631971 0.0 0.0 0.0 34.279985188174585" Properties=species:S:1:pos:R:3:initial_magmoms:R:1 pbc="T T T"
Si       1.56888990      -1.67653422      -0.17702194       0.00000000
Si      -0.30690360       1.16493048      -2.03276998       0.00000000
Si      -2.15726841      -0.85906944       0.47621782       0.00000000
Si       0.87566895       1.14934095       1.88999376       0.00000000
Si      -3.07418364       1.00277982       1.62380953       0.00000000
Si      -1.96380837       2.94568812       0.75659398       0.00000000
Si       1.44256095      -2.67988419       1.97613941       0.00000000
Si       3.51849339      -0.42402870      -0.86193643       0.00000000
Si      -1.45961658       3.10909311      -1.52995087       0.00000000
Si      -3.25633842      -1.06787466      -1.55775196       0.00000000
