10
Lattice="16.28999089631971 0.0 0.0 0.0 16.28999089631971 0.0 0.0 0.0 34.279985188174585" Properties=species:S:1:pos:R:3:initial_magmoms:R:1 pbc="T T T"
Si       0.76084521       1.81199046      -1.56457368       0.00000000
Si       1.83585109      -1.69505825      -0.39134053       0.00000000
Si      -1.71185094      -0.60975523      -1.76000398       0.00000000
Si      -0.24228117       0.00285075       2.91770829       0.00000000
Si      -3.03114546      -2.15453399      -0.52527251       0.00000000
Si      -0.59471532      -2.07696101      -3.23390705       0.00000000
Si       0.76554296      -3.38249048      -1.77303038       0.00000000
Si       2.02217122       3.33461676      -0.10126313       0.00000000
Si       2.11997964       0.64519640      -3.21601289       0.00000000
Si      -0.54418374      -2.37005069       3.20192381       0.00000000
