10
Lattice="16.28999089631971 0.0 0.0 0.0 16.28999089631971 0.0 0.0 0.0 34.279985188174585" Properties=species:S:1:pos:R:3:initial_magmoms:R:1 pbc="T T T"
Si       1.99040994       1.06209171      -0.57758379       0.00000000
Si       0.20026926      -2.39233311      -0.10445117       0.00000000
Si      -0.25602993       1.22375367       2.07877374       0.00000000
Si      -1.46587194      -2.42922996      -1.96983189       0.00000000
Si       1.01646342       3.25705518      -0.91260228       0.00000000
Si       0.10098171       3.41871714       1.19644071       0.00000000
Si       3.51405666       0.55126989       1.23682256       0.00000000
Si      -1.82495241       1.61479512      -2.89522061       0.00000000
Si      -3.50627589       1.27840662      -1.03223949       0.00000000
Si       0.14131575      -3.27106947       2.17170684       0.00000000
