10
Lattice="16.28999089631971 0.0 0.0 0.0 16.28999089631971 0.0 0.0 0.0 34.279985188174585" Properties=species:S:1:pos:R:3:initial_magmoms:R:1 pbc="T T T"
Si       1.37386602       1.37893221       1.35330601       0.00000000
Si       1.41216381      -1.28593260      -1.44671902       0.00000000
Si      -1.29815662       1.42377858      -1.44085714       0.00000000
Si      -1.39155207      -1.30948794       1.67423541       0.00000000
Si       2.01937356      -0.61476831       2.40827315       0.00000000
Si      -2.56959454       2.74665690       0.13293786       0.00000000
Si       2.80191258      -2.59481781      -0.00181684       0.00000000
Si       0.05584212      -2.64134205      -2.82419244       0.00000000
Si      -2.66048682       0.07613946      -2.82025024       0.00000000
Si      -2.65287809      -2.83211424       0.21092487       0.00000000
