10
Lattice="16.28999089631971 0.0 0.0 0.0 16.28999089631971 0.0 0.0 0.0 34.279985188174585" Properties=species:S:1:pos:R:3:initial_magmoms:R:1 pbc="T T T"
Si      -2.10763278      -0.74792277       0.79642734       0.00000000
Si       0.37712883       0.85281408      -2.18548740       0.00000000
Si       0.62103249       2.03247072       1.21193527       0.00000000
Si       1.04983904      -2.20853304       0.14089082       0.00000000
Si      -1.78738767       1.80706599      -2.47813579       0.00000000
Si      -2.29249170      -2.57857668      -0.86149079       0.00000000
Si       1.83466844       2.62435158      -1.74502362       0.00000000
Si      -1.57525929      -0.66472974       3.24042025       0.00000000
Si       2.63698352       1.44616104       2.28339109       0.00000000
Si      -0.18238284      -3.42099774      -1.59724252       0.00000000
