10
Lattice="16.28999089631971 0.0 0.0 0.0 16.28999089631971 0.0 0.0 0.0 34.279985188174585" Properties=species:S:1:pos:R:3:initial_magmoms:R:1 pbc="T T T"
Si      -1.52441545      -1.35576783       1.27967256       0.00000000
Si       1.27143792      -1.32287832      -1.57379500       0.00000000
Si       1.27932065       1.46675160       1.44822734       0.00000000
Si      -1.42281472       1.37932317      -1.57338364       0.00000000
Si       2.54735869       2.64556116      -0.18614042       0.00000000
Si       2.56959454      -2.74665690      -0.13293786       0.00000000
Si      -2.65609804       2.70793557      -0.05683625       0.00000000
Si       2.75474668       0.09837531       2.70380106       0.00000000
Si      -0.12166726      -2.54700666       2.96192950       0.00000000
Si       2.62607197       0.04139289      -2.95637613       0.00000000
