10
Lattice="16.28999089631971 0.0 0.0 0.0 16.28999089631971 0.0 0.0 0.0 34.279985188174585" Properties=species:S:1:pos:R:3:initial_magmoms:R:1 pbc="T T T"
Si       1.23328332      -1.32861240      -1.51654739       0.00000000
Si      -1.48504527      -1.17931455       1.51928979       0.00000000
Si       1.42975701       1.37976300       1.44428514       0.00000000
Si      -1.49387445       1.38994425      -1.51778147       0.00000000
Si      -1.30033296       0.72171216       3.30610074       0.00000000
Si       2.65609804      -2.70793557       0.05683625       0.00000000
Si       2.57751224       2.80880325      -0.07363345       0.00000000
Si       0.03096729       2.69079849       2.78165095       0.00000000
Si       2.56394284       0.05162301      -2.90022549       0.00000000
Si      -2.88702783      -2.61780300      -0.06975981       0.00000000
