10
Lattice="16.28999089631971 0.0 0.0 0.0 16.28999089631971 0.0 0.0 0.0 34.279985188174585" Properties=species:S:1:pos:R:3:initial_magmoms:R:1 pbc="T T T"
Si      -1.86740415      -1.42079751      -0.19615018       0.00000000
Si      -0.02682963       2.35965537       0.33323592       0.00000000
Si       1.68421725      -1.77355746      -0.68477737       0.00000000
Si       1.57444546      -1.98084771       1.83973927       0.00000000
Si       0.76389416       2.61138474      -1.98069865       0.00000000
Si       2.08643039       1.91767509       1.83257475       0.00000000
Si      -1.62605151       2.32507170       2.14873923       0.00000000
Si      -2.78288586      -1.25913555       1.91289280       0.00000000
Si       0.45623307      -0.68652576       3.58935642       0.00000000
Si      -1.70828343       0.26772615       3.29670802       0.00000000
