10
Lattice="16.28999089631971 0.0 0.0 0.0 16.28999089631971 0.0 0.0 0.0 34.279985188174585" Properties=species:S:1:pos:R:3:initial_magmoms:R:1 pbc="T T T"
Si      -1.56888990       1.67653422       0.17702194       0.00000000
Si      -0.53711388      -1.83990663      -1.40829114       0.00000000
Si      -0.12632895      -1.00334997       2.15316135       0.00000000
Si       1.94960349       1.25250552      -0.68491449       0.00000000
Si       2.15633988      -1.28521584       2.35472778       0.00000000
Si      -0.69322095       2.82587517       2.06701570       0.00000000
Si      -1.80149481      -2.61488709       1.98350961       0.00000000
Si       1.58954562       1.75765842      -2.96083254       0.00000000
Si      -1.19904174      -3.66316488      -0.04182161       0.00000000
Si      -3.72615831       0.81746478       0.65323976       0.00000000
