10
Lattice="16.28999089631971 0.0 0.0 0.0 16.28999089631971 0.0 0.0 0.0 34.279985188174585" Properties=species:S:1:pos:R:3:initial_magmoms:R:1 pbc="T T T"
Si      -0.54885897       1.71947466      -1.40239498       0.00000000
Si      -1.04645331       0.67295619       1.97182013       0.00000000
Si       2.35857113       0.33899490       0.25819699       0.00000000
Si      -1.34894232      -1.77349230      -1.08077998       0.00000000
Si       2.14957043      -1.81607436       1.31755197       0.00000000
Si       0.84734946       0.92370816      -3.10926495       0.00000000
Si       2.86330049       0.33739848      -2.03780914       0.00000000
Si      -1.94724144      -1.32727662       2.81994172       0.00000000
Si      -3.07675746      -1.95475113       0.57830367       0.00000000
Si      -1.55492937       2.97851247       1.66172321       0.00000000
