10
Lattice="16.28999089631971 0.0 0.0 0.0 16.28999089631971 0.0 0.0 0.0 34.279985188174585" Properties=species:S:1:pos:R:3:initial_magmoms:R:1 pbc="T T T"
Si       2.10510361       0.55027620       0.88545251       0.00000000
Si      -0.29056473      -2.02457007      -1.20422227       0.00000000
Si      -1.29663513      -0.76553226       1.85989592       0.00000000
Si      -0.88153335       2.04390630      -0.88768071       0.00000000
Si      -2.57323356      -1.74270420      -1.40578870       0.00000000
Si      -3.28921164      -0.81766026       0.68940517       0.00000000
Si       0.25829424      -3.74404473       0.19817271       0.00000000
Si      -0.78815907      -3.07108854       2.16999284       0.00000000
Si       3.27864662       1.94898447      -0.61697152       0.00000000
Si      -0.51813603       3.77123274       0.72029145       0.00000000
