10
Lattice="16.28999089631971 0.0 0.0 0.0 16.28999089631971 0.0 0.0 0.0 34.279985188174585" Properties=species:S:1:pos:R:3:initial_magmoms:R:1 pbc="T T T"
Si      -1.99257651      -0.05212800      -1.17049075       0.00000000
Si       0.50847606      -2.30555628       0.31009692       0.00000000
Si       1.29663513       0.76553226      -1.85989592       0.00000000
Si       0.41098041       1.44550944       1.96643817       0.00000000
Si       1.00607040      -1.25903781      -3.06411819       0.00000000
Si      -1.27659843      -0.97717194      -3.26568461       0.00000000
Si      -2.36301111      -1.82977425       2.18415048       0.00000000
Si      -2.77645131       2.10849615      -1.35063217       0.00000000
Si       1.55492937      -2.97851247      -1.66172321       0.00000000
Si      -3.46913469      -1.46582307      -0.03020068       0.00000000
