10
Lattice="16.28999089631971 0.0 0.0 0.0 16.28999089631971 0.0 0.0 0.0 34.279985188174585" Properties=species:S:1:pos:R:3:initial_magmoms:R:1 pbc="T T T"
Si       0.37509354       2.14807012       0.96402228       0.00000000
Si       2.21999210      -0.85335165       0.31842696       0.00000000
Si      -0.96943419      -2.03442552       0.96614764       0.00000000
Si      -0.60191550       1.05683004      -2.13989499       0.00000000
Si       0.77224278       1.25838621       3.06133538       0.00000000
Si       2.02132414      -2.16412650      -1.97473393       0.00000000
Si      -2.42545068      -1.04959728       2.68926634       0.00000000
Si       1.30831247       2.28865445      -2.81020620       0.00000000
Si      -1.38041460      -3.47993496      -1.00029053       0.00000000
Si       3.80878838       0.87459381      -0.20300619       0.00000000
