10
Lattice="16.28999089631971 0.0 0.0 0.0 16.28999089631971 0.0 0.0 0.0 34.279985188174585" Properties=species:S:1:pos:R:3:initial_magmoms:R:1 pbc="T T T"
Si      -1.35766217      -1.35708732       1.35618553       0.00000000
Si       1.35704419       1.35790182       1.35735105       0.00000000
Si      -1.35728750       1.35731538      -1.35834517       0.00000000
Si       1.35736185      -1.35738054      -1.35820805       0.00000000
Si       2.71440519      -0.00029322      -2.71518202       0.00000000
Si       2.71499163       2.71484253      -0.00020568       0.00000000
Si       2.71510566      -2.71494027      -0.00006856       0.00000000
Si      -2.71510787       2.71511946       0.00000000       0.00000000
Si       0.00040255      -2.71536381      -2.71501062       0.00000000
Si      -0.00107596       2.71513575      -2.71552482       0.00000000
