10
Lattice="16.28999089631971 0.0 0.0 0.0 16.28999089631971 0.0 0.0 0.0 34.279985188174585" Properties=species:S:1:pos:R:3:initial_magmoms:R:1 pbc="T T T"
Si      -1.35704419      -1.35790182      -1.35735105       0.00000000
Si       1.35794743       1.35694071      -1.35755673       0.00000000
Si       1.35817549      -1.35817875       1.35981921       0.00000000
Si      -1.36005168       1.35998694       1.35913361       0.00000000
Si      -2.71436427       2.71471221      -0.00106268       0.00000000
Si       2.71529539       2.71383255      -0.00099412       0.00000000
Si       0.00037793       2.71446786      -2.71511346       0.00000000
Si      -2.71470636      -2.71498914      -0.00116552       0.00000000
Si      -2.71433169      -0.00058644      -2.71569622       0.00000000
Si       2.71501846      -2.71547784      -0.00003428       0.00000000
