10
Lattice="16.28999089631971 0.0 0.0 0.0 16.28999089631971 0.0 0.0 0.0 34.279985188174585" Properties=species:S:1:pos:R:3:initial_magmoms:R:1 pbc="T T T"
Si       1.47542602      -1.36837629       1.25557372       0.00000000
Si       1.26803803       1.17880956      -1.63436777       0.00000000
Si      -1.27932065      -1.46675160      -1.44822734       0.00000000
Si      -0.85233352       1.83840795       1.47805095       0.00000000
Si      -2.50566168       2.62094697      -0.06077845       0.00000000
Si       2.29135954       2.87560854      -0.30354944       0.00000000
Si       0.06798957      -2.54653425       2.77397223       0.00000000
Si      -1.61622768      -0.77297679       3.45874960       0.00000000
Si       2.66413990      -2.83447629      -0.22785919       0.00000000
Si      -2.80373610      -2.82251943      -0.16855478       0.00000000
