10
Lattice="16.28999089631971 0.0 0.0 0.0 16.28999089631971 0.0 0.0 0.0 34.279985188174585" Properties=species:S:1:pos:R:3:initial_magmoms:R:1 pbc="T T T"
Si      -1.35544252       1.35270531       1.35865369       0.00000000
Si       1.35770145       1.35671177      -1.35735105       0.00000000
Si      -1.35695111      -1.35827649      -1.35687113       0.00000000
Si       1.36061736      -1.36112724       1.36125897       0.00000000
Si       2.71449555       2.71330380       0.00061704       0.00000000
Si       0.00007005       2.71449622      -2.71411934       0.00000000
Si      -2.71472428      -0.00084708      -2.71422218       0.00000000
Si      -2.71597861       2.71324678       0.00078844       0.00000000
Si       2.71550553      -0.00068418      -2.71384510       0.00000000
Si       0.00032743      -2.71583622      -2.71411934       0.00000000
