10
Lattice="10.86 0.0 0.0 0.0 10.86 0.0 0.0 0.0 10.86" Properties=species:S:1:pos:R:3:initial_magmoms:R:1 pbc="T T T"
Si       1.24063554       1.47436446      -1.26699276       0.00000000
Si      -1.47436446      -1.24063554      -1.26699276       0.00000000
Si       1.25688210      -1.25688210       1.51346046       0.00000000
Si      -1.47436446       1.47436446       1.44800724       0.00000000
Si       2.59813554       0.11686446      -2.62449276       0.00000000
Si      -0.11686446      -2.59813554      -2.62449276       0.00000000
Si       2.64341088      -2.64341088      -0.00330144       0.00000000
Si       2.59813554       2.83186446       0.09050724       0.00000000
Si      -2.83186446      -2.59813554       0.09050724       0.00000000
Si      -0.11686446       2.83186446      -2.62449276       0.00000000
