10
Lattice="16.2900001489832 0.0 0.0 0.0 16.2900001489832 0.0 0.0 0.0 29.34461067663915" Properties=species:S:1:pos:R:3:initial_magmoms:R:1 pbc="T T T"
Si       1.26701178       1.23616096       1.54978573       0.00000000
Si      -1.05078320       1.88028548      -0.97089579       0.00000000
Si       0.96155635      -0.16481000      -2.25249232       0.00000000
Si      -1.43509689      -1.43784094       1.37975131       0.00000000
Si      -0.66819626       1.22447126      -3.20143834       0.00000000
H        2.03203417      -2.85184553      -0.72668994       0.00000000
Si      -0.23546316       2.59072497       2.80680614       0.00000000
Si       3.09950159       2.23117209       0.39297158       0.00000000
Si       2.45326099      -0.16223618       3.03391582       0.00000000
Si       0.36219512       3.72475333      -1.39486672       0.00000000
