10
Lattice="16.2900001489832 0.0 0.0 0.0 16.2900001489832 0.0 0.0 0.0 29.34461067663915" Properties=species:S:1:pos:R:3:initial_magmoms:R:1 pbc="T T T"
Si      -1.36225208      -1.32633719      -1.41804897       0.00000000
Si       1.36985218       1.33984274      -1.39850546       0.00000000
Si      -1.43391749       1.43810402       1.22892295       0.00000000
Si       1.36392262      -1.40073802       1.37326909       0.00000000
Si      -2.62869126      -2.71556909       0.01050537       0.00000000
Si       2.72096108       2.65949565       0.03629928       0.00000000
Si       0.02904507      -2.73257585      -2.69210393       0.00000000
Si      -2.70443976       2.74593039      -0.24077253       0.00000000
Si       2.70155969      -0.10051582       2.81496981       0.00000000
Si       2.77971911      -0.02700719      -2.74046385       0.00000000
