10
Lattice="16.2900001489832 0.0 0.0 0.0 16.2900001489832 0.0 0.0 0.0 29.34461067663915" Properties=species:S:1:pos:R:3:initial_magmoms:R:1 pbc="T T T"
Si      -1.03350277      -1.38701206       1.64303410       0.00000000
Si      -1.78450436       0.56492092      -1.50910529       0.00000000
Si       0.36556389       2.10031859       1.17489952       0.00000000
Si       1.96784831      -1.06171705      -0.97699947       0.00000000
Si       0.07716573      -0.53890578       3.57813510       0.00000000
Si      -1.87198166       2.90574507      -1.33265615       0.00000000
Si      -3.33203808      -0.77735881       1.72654886       0.00000000
Si      -0.34956711      -3.64861794       1.18220633       0.00000000
Si      -3.83052838      -0.07453327      -0.50689880       0.00000000
Si       1.72845047       3.47752407      -0.18014657       0.00000000
