10
Lattice="16.2900001489832 0.0 0.0 0.0 16.2900001489832 0.0 0.0 0.0 29.34461067663915" Properties=species:S:1:pos:R:3:initial_magmoms:R:1 pbc="T T T"
Si      -0.87710248      -1.78809956       1.35533751       0.00000000
Si       1.84036277       0.84942251       1.30558666       0.00000000
Si       0.05126463      -0.44949779      -2.38705699       0.00000000
Si      -1.54732195       1.87552147       0.19913080       0.00000000
H       -0.67078963      -3.17177217      -1.48300822       0.00000000
Si      -2.19356255      -0.51788680       2.84007504       0.00000000
Si       0.62936416       2.24264921       2.82034372       0.00000000
Si      -1.81690517       0.81687346      -3.12932891       0.00000000
Si      -3.37981176       0.88051035       1.35594494       0.00000000
Si       2.02038356       0.53190434      -3.30651167       0.00000000
