10
Lattice="16.2900001489832 0.0 0.0 0.0 16.2900001489832 0.0 0.0 0.0 29.34461067663915" Properties=species:S:1:pos:R:3:initial_magmoms:R:1 pbc="T T T"
H       -1.15202881       0.92462041       0.34990514       0.00000000
Si       1.51182604       1.19345428      -1.30947391       0.00000000
Si       0.95252518      -0.06071283       2.13085890       0.00000000
Si      -1.22766328      -1.57936438      -1.21049454       0.00000000
Si       0.16420320       2.17222265       2.64929014       0.00000000
Si      -2.58980051      -0.21100437      -2.61296151       0.00000000
Si       0.12931002       2.52332102      -2.68664583       0.00000000
Si       0.21651039      -2.95657638      -2.49784261       0.00000000
Si       2.79847542       2.68850162      -0.01922072       0.00000000
Si       2.89861005      -0.23936526      -2.58473200       0.00000000
