10
Lattice="16.2900001489832 0.0 0.0 0.0 16.2900001489832 0.0 0.0 0.0 29.34461067663915" Properties=species:S:1:pos:R:3:initial_magmoms:R:1 pbc="T T T"
Si      -0.22628439      -0.50764527      -2.27731786       0.00000000
Si      -2.10009053      -0.74069002       0.89043287       0.00000000
Si       2.01126116      -1.31307175       0.23023782       0.00000000
Si       0.35438895       2.35506161       0.43653043       0.00000000
H       -0.32205330       2.23611203      -1.97266211       0.00000000
H        1.45844371       3.05602032      -0.34066159       0.00000000
Si       1.24980139       2.04866300       2.52944675       0.00000000
Si       1.87989860       0.34930647      -2.93924424       0.00000000
Si       3.37414773       0.06413373      -1.12480827       0.00000000
Si      -2.46221723       0.26653698      -2.63810984       0.00000000
