10
Lattice="16.2900001489832 0.0 0.0 0.0 16.2900001489832 0.0 0.0 0.0 29.34461067663915" Properties=species:S:1:pos:R:3:initial_magmoms:R:1 pbc="T T T"
Si       0.88992271      -0.96720247       0.75706161       0.00000000
H        0.71255719      -0.21652668      -2.08566820       0.00000000
H       -2.35427969      -0.28284327      -0.82740064       0.00000000
Si      -2.10574316       1.15647598      -1.20336379       0.00000000
Si      -0.22954239       0.82732024      -2.60976295       0.00000000
Si       2.33160401       0.46981989       1.97242442       0.00000000
Si      -0.57459718      -2.22593078       2.15719276       0.00000000
Si       2.10070955      -2.45309483      -0.64769425       0.00000000
Si      -2.47208897       2.32139181       0.82797110       0.00000000
Si      -0.58156930       3.22922537       1.98008043       0.00000000
