10
Lattice="16.2900001489832 0.0 0.0 0.0 16.2900001489832 0.0 0.0 0.0 29.34461067663915" Properties=species:S:1:pos:R:3:initial_magmoms:R:1 pbc="T T T"
Si       1.33763707       1.30022220       1.44170072       0.00000000
Si      -1.14623120      -1.31238757       1.59599469       0.00000000
Si       1.41947803      -1.38310246      -1.28778824       0.00000000
Si      -1.36392262       1.40073802      -1.37326909       0.00000000
H        2.31932135       0.29460628       2.02193171       0.00000000
Si      -2.66942457      -2.58035231       0.18610352       0.00000000
Si      -0.16021215       1.84831229       3.25428798       0.00000000
Si       2.74989864       0.03411126      -2.64353860       0.00000000
Si       0.01653435      -2.71049312      -2.68852389       0.00000000
Si       2.71917569       2.69187365       0.06549717       0.00000000
