10
Lattice="16.2900001489832 0.0 0.0 0.0 16.2900001489832 0.0 0.0 0.0 29.34461067663915" Properties=species:S:1:pos:R:3:initial_magmoms:R:1 pbc="T T T"
Si      -2.29853531       0.60965326       0.08351476       0.00000000
Si       1.03350277       1.38701206      -1.64303410       0.00000000
Si       1.11066850       0.84810628       1.93510101       0.00000000
Si       0.68393566      -2.26160588      -0.46082777       0.00000000
Si       2.86161546      -1.95419729       0.39254286       0.00000000
H       -2.68001453      -2.23640525       0.86502043       0.00000000
Si      -2.79702561       1.31247880      -2.14993290       0.00000000
Si       3.24537528      -0.17029566       1.92075149       0.00000000
Si      -0.75100159       1.95193298      -3.15213939       0.00000000
Si       1.39906666       3.48733065      -0.46813457       0.00000000
