10
Lattice="16.2900001489832 0.0 0.0 0.0 16.2900001489832 0.0 0.0 0.0 29.34461067663915" Properties=species:S:1:pos:R:3:initial_magmoms:R:1 pbc="T T T"
Si      -0.81111169      -1.77315023       1.34081395       0.00000000
Si       0.13937724       1.95877478       1.35211163       0.00000000
Si      -1.25734366       0.58173220      -2.00558676       0.00000000
Si       1.93903130      -1.22758183      -0.85257832       0.00000000
H       -1.11218347      -0.53488378      -3.02924416       0.00000000
Si      -1.15556374      -3.12305367      -0.53914853       0.00000000
Si       2.23669847       2.88922701       0.48392197       0.00000000
Si       0.99271261      -3.30450798      -1.55485354       0.00000000
Si      -1.59642001       3.44210961       0.60106566       0.00000000
Si      -0.37362744       1.27749439       3.69343008       0.00000000
