10
Lattice="16.2900001489832 0.0 0.0 0.0 16.2900001489832 0.0 0.0 0.0 29.34461067663915" Properties=species:S:1:pos:R:3:initial_magmoms:R:1 pbc="T T T"
Si       2.21760659      -0.18210591       0.55845729       0.00000000
Si      -1.24890544      -1.86391811       0.54178955       0.00000000
Si      -0.50714028       1.80626780       1.38926190       0.00000000
Si       0.51223905       0.08555508      -2.36541038       0.00000000
Si      -1.34587981      -2.74466955      -1.64209507       0.00000000
Si       1.66677653       2.74149300       1.39962055       0.00000000
Si      -1.43444854      -0.88589908      -3.14028417       0.00000000
Si       3.10280520       1.85987819      -0.24229845       0.00000000
Si       3.15345081      -1.79470190      -0.82235337       0.00000000
Si      -1.98804791       3.17400879       0.15948796       0.00000000
