10
Lattice="16.2900001489832 0.0 0.0 0.0 16.2900001489832 0.0 0.0 0.0 29.34461067663915" Properties=species:S:1:pos:R:3:initial_magmoms:R:1 pbc="T T T"
Si       1.20390220      -1.44660088       1.36214249       0.00000000
Si      -0.87656491      -1.38443824      -1.66131579       0.00000000
Si      -1.57685572       1.13495689       1.33074053       0.00000000
Si       1.41666149       1.29946960      -1.41799028       0.00000000
Si      -0.39433203       2.22796703      -2.66566443       0.00000000
Si       1.21211122      -2.20291301      -2.46306924       0.00000000
Si       1.78834880      -3.02762685      -0.29417972       0.00000000
Si      -1.56693511       0.24135264      -3.19885601       0.00000000
Si       2.63824535      -0.07100811       2.60805803       0.00000000
Si      -0.28417905       2.58931181       2.69447791       0.00000000
