10
Lattice="16.2900001489832 0.0 0.0 0.0 16.2900001489832 0.0 0.0 0.0 29.34461067663915" Properties=species:S:1:pos:R:3:initial_magmoms:R:1 pbc="T T T"
Si      -0.74494171      -0.12052971      -2.22738243       0.00000000
Si      -1.83726767      -0.87395851       1.26080264       0.00000000
Si       0.91797409       1.88222807       1.17766349       0.00000000
Si       1.75629008      -1.71429446       0.05139180       0.00000000
H        1.86579146       1.12045879      -1.79258333       0.00000000
H        2.16512021      -1.97065019      -1.39191202       0.00000000
H       -1.33768594       1.18954468      -2.72741459       0.00000000
Si      -0.49943511      -2.34238799       2.54475554       0.00000000
Si       2.33873903       0.57184417       2.57233067       0.00000000
Si      -2.40468095      -1.79211179      -2.28108306       0.00000000
