10
Lattice="16.2900001489832 0.0 0.0 0.0 16.2900001489832 0.0 0.0 0.0 29.34461067663915" Properties=species:S:1:pos:R:3:initial_magmoms:R:1 pbc="T T T"
Si       1.22010472      -1.27786906      -1.56844010       0.00000000
Si      -1.34324083      -1.42281748       1.36666655       0.00000000
Si       1.86934268       0.85647934       1.24603086       0.00000000
Si      -1.39167100       1.41662728      -1.37235941       0.00000000
Si       2.52745868      -2.62444934      -0.16350817       0.00000000
Si      -2.39609612       0.13716180       2.75719027       0.00000000
H       -0.49182768       3.09433603       1.93736054       0.00000000
Si      -2.72477945      -2.61405632      -0.14681109       0.00000000
Si       3.59329710      -0.88865209       1.02615169       0.00000000
Si       2.78322798       2.65906559      -0.03538960       0.00000000
