10
Lattice="16.2900001489832 0.0 0.0 0.0 16.2900001489832 0.0 0.0 0.0 29.34461067663915" Properties=species:S:1:pos:R:3:initial_magmoms:R:1 pbc="T T T"
H        0.91567394      -1.21824766      -0.05648838       0.00000000
Si      -1.24639678      -0.19007172      -2.02043513       0.00000000
Si      -1.35847198      -0.57689407       1.89756925       0.00000000
Si       1.74985553       1.65612287      -0.27997693       0.00000000
H       -2.74662435       1.65967409       0.45959529       0.00000000
H        2.23997276      -1.85163545       1.46200719       0.00000000
H        2.33955353       0.93201607       2.41124666       0.00000000
Si      -2.83507905      -2.13048767       0.84970255       0.00000000
H        2.42222528      -2.71961552      -0.49915183       0.00000000
Si      -0.35173368       1.47012364      -3.43590177       0.00000000
