10
Lattice="16.2900001489832 0.0 0.0 0.0 16.2900001489832 0.0 0.0 0.0 29.34461067663915" Properties=species:S:1:pos:R:3:initial_magmoms:R:1 pbc="T T T"
H        0.63672724       0.04349430      -1.38864567       0.00000000
Si       0.48669633      -2.24826437       0.50314269       0.00000000
Si       1.77582179       1.22753296       1.00094467       0.00000000
Si      -2.31699188       0.94325617      -0.22601219       0.00000000
Si       1.01024065       3.07967340      -0.15018572       0.00000000
Si      -0.42683058      -3.22090770      -1.39542427       0.00000000
Si      -0.42876909      -2.63093276       2.57933259       0.00000000
Si      -3.39786597      -0.24206940       1.47333421       0.00000000
Si       0.01409085       3.02078505      -2.31763735       0.00000000
H        2.52718175       0.66683116      -2.82339172       0.00000000
