10
Lattice="16.2900001489832 0.0 0.0 0.0 16.2900001489832 0.0 0.0 0.0 29.34461067663915" Properties=species:S:1:pos:R:3:initial_magmoms:R:1 pbc="T T T"
Si       1.43764138      -1.39202938       1.19605699       0.00000000
Si       1.34027605       1.33646419      -1.37215986       0.00000000
Si      -1.27195579      -1.34640109      -1.45343563       0.00000000
Si      -1.28625841       1.33529131       1.47456669       0.00000000
Si       0.04098564      -2.75752724       2.48810019       0.00000000
Si      -2.63756279       2.65784384       0.00836321       0.00000000
Si       2.76566736       0.01342296       2.53687094       0.00000000
Si      -0.03836295       2.64130949      -2.74914692       0.00000000
Si      -2.71810055      -2.72452370      -0.15561447       0.00000000
Si      -2.61052139      -0.10137267       2.84217227       0.00000000
