10
Lattice="16.2900001489832 0.0 0.0 0.0 16.2900001489832 0.0 0.0 0.0 29.34461067663915" Properties=species:S:1:pos:R:3:initial_magmoms:R:1 pbc="T T T"
Si      -0.25761006       0.39222248       2.33078374       0.00000000
Si      -1.88600735      -0.84396047      -1.21122815       0.00000000
Si       1.64253701      -1.76384049      -0.26818040       0.00000000
Si       0.78853375       1.87185948      -1.32555475       0.00000000
Si      -0.71195446      -2.01957720      -2.90147773       0.00000000
Si       2.01657170       0.67242188      -2.92322208       0.00000000
Si       3.31051899      -0.63354450      -1.47996609       0.00000000
Si      -0.34508736       2.73304663       2.50723288       0.00000000
Si       0.56071810      -3.39215633      -1.53472314       0.00000000
Si      -2.79989265      -2.64654673       0.07019231       0.00000000
