10
Lattice="16.2900001489832 0.0 0.0 0.0 16.2900001489832 0.0 0.0 0.0 29.34461067663915" Properties=species:S:1:pos:R:3:initial_magmoms:R:1 pbc="T T T"
Si      -0.83074114       0.69962293       2.05321306       0.00000000
Si      -1.80330302      -1.01851597      -1.11764819       0.00000000
Si       0.94177378       1.87085765      -1.10467787       0.00000000
Si       1.65488483      -1.76694374       0.01035865       0.00000000
Si       2.14941665       0.55299663      -2.66654477       0.00000000
Si      -0.57526507      -2.21795357      -2.71531552       0.00000000
Si       3.41993892      -0.75482974      -1.19684929       0.00000000
Si       0.71868223      -3.52391995      -1.27205953       0.00000000
Si      -1.95481631       2.72978048       1.94927445       0.00000000
Si      -2.59183676      -2.89037545       0.20790657       0.00000000
