10
Lattice="16.2900001489832 0.0 0.0 0.0 16.2900001489832 0.0 0.0 0.0 29.34461067663915" Properties=species:S:1:pos:R:3:initial_magmoms:R:1 pbc="T T T"
Si       1.33902172       1.32133078       1.40807180       0.00000000
Si       1.24844932      -1.44489043      -1.38350743       0.00000000
Si      -1.40401882       1.26975664      -1.45874114       0.00000000
Si      -1.35075052      -1.42835608       1.37400271       0.00000000
Si      -0.57513475      -2.35892234      -2.61762877       0.00000000
Si      -2.23879988      -0.60380515      -2.72609350       0.00000000
Si       2.64909611       2.68423364      -0.00874176       0.00000000
Si       2.62708832      -2.74973574      -0.00652037       0.00000000
Si      -0.06011010       2.71246421       2.67751966       0.00000000
Si      -2.81225676       2.57528612      -0.05951087       0.00000000
