10
Lattice="16.2900001489832 0.0 0.0 0.0 16.2900001489832 0.0 0.0 0.0 29.34461067663915" Properties=species:S:1:pos:R:3:initial_magmoms:R:1 pbc="T T T"
Si       1.42249168       1.27086436      -1.36321504       0.00000000
Si       1.37863900      -1.30484530       1.37698705       0.00000000
Si      -1.24844932       1.44489043       1.38350743       0.00000000
Si      -1.82358407      -0.91403191      -1.23412135       0.00000000
Si      -0.12743667       2.25966737      -2.78735947       0.00000000
Si       2.72678312      -2.60872949      -0.04509680       0.00000000
Si      -2.59919984       0.01653435       2.75751013       0.00000000
Si      -2.65246814       2.71464707      -0.07523371       0.00000000
Si       0.03836295      -2.64130949       2.74914692       0.00000000
Si      -3.48724920       0.84108529      -1.34258607       0.00000000
