10
Lattice="16.2900001489832 0.0 0.0 0.0 16.2900001489832 0.0 0.0 0.0 29.34461067663915" Properties=species:S:1:pos:R:3:initial_magmoms:R:1 pbc="T T T"
Si       1.28625841      -1.33529131      -1.47456669       0.00000000
Si      -1.32426298      -1.43666398       1.36760558       0.00000000
Si       1.37759644       1.39887118       1.36696000       0.00000000
Si      -1.35130438       1.32255253      -1.46620347       0.00000000
Si      -2.71104698      -0.00384444       2.64286367       0.00000000
Si      -2.75529063       2.68060097      -0.12820660       0.00000000
Si       2.72461655       2.73738792      -0.05103028       0.00000000
Si       2.72389979      -2.72732069      -0.27850970       0.00000000
Si       2.84428290      -0.00400734       2.62417115       0.00000000
Si       2.62653446       0.00117288      -2.84672655       0.00000000
