10
Lattice="16.2900001489832 0.0 0.0 0.0 16.2900001489832 0.0 0.0 0.0 29.34461067663915" Properties=species:S:1:pos:R:3:initial_magmoms:R:1 pbc="T T T"
Si      -1.37313298       1.25374357      -1.41628829       0.00000000
Si      -1.37173204      -1.36311463       1.31457987       0.00000000
Si       1.00691749       1.47080782       1.57771299       0.00000000
Si       1.43026201      -1.45544635      -1.25157699       0.00000000
Si       0.00035838      -1.99940204       3.05958649       0.00000000
Si       1.17923311      -0.01651806       3.46920791       0.00000000
Si       2.66898620       2.62490546       0.21271908       0.00000000
Si      -2.77843872       2.54296676      -0.02112812       0.00000000
Si      -0.00799839       2.60905529      -2.78122351       0.00000000
Si       2.77728213      -0.11692962      -2.66956727       0.00000000
