10
Lattice="16.2900001489832 0.0 0.0 0.0 16.2900001489832 0.0 0.0 0.0 29.34461067663915" Properties=species:S:1:pos:R:3:initial_magmoms:R:1 pbc="T T T"
Si      -0.40883013       0.25635573       1.44330382       0.00000000
Si       0.79749325       0.41914170      -2.31021316       0.00000000
Si       1.26871408      -2.13224699      -0.17468847       0.00000000
H        0.29302452      -0.97109578      -2.64362663       0.00000000
Si       2.67905342      -0.63273619      -1.26883162       0.00000000
H       -0.29932875       3.09110898      -0.40067131       0.00000000
Si       1.48035376       1.14802147       2.58392209       0.00000000
Si      -2.16512021       1.97065019       1.39191202       0.00000000
Si      -1.25631739      -1.67726729       2.53743729       0.00000000
Si      -1.46447101       1.39870828      -2.64773488       0.00000000
