10
Lattice="16.2900001489832 0.0 0.0 0.0 16.2900001489832 0.0 0.0 0.0 29.34461067663915" Properties=species:S:1:pos:R:3:initial_magmoms:R:1 pbc="T T T"
Si       0.91352692       0.97264333       1.89856697       0.00000000
Si       1.43946586       0.53590842      -1.75184391       0.00000000
Si      -2.21749256       0.62563375      -0.43183529       0.00000000
Si       0.02604771      -2.27791217      -0.74235996       0.00000000
Si       1.11433375      -1.61665219      -2.73180719       0.00000000
Si      -3.10269117      -1.41635035       0.36892045       0.00000000
H        1.06355782       3.26440200       0.00677861       0.00000000
Si       0.42683058       3.22090770       1.39542427       0.00000000
Si      -2.16684695      -3.02894634      -1.01189021       0.00000000
Si       3.24365017       0.50277456       2.10480089       0.00000000
