10
Lattice="16.2900001489832 0.0 0.0 0.0 16.2900001489832 0.0 0.0 0.0 29.34461067663915" Properties=species:S:1:pos:R:3:initial_magmoms:R:1 pbc="T T T"
H        0.29185816       0.70058404      -0.18592745       0.00000000
H       -1.89045452      -0.62333686       1.43474605       0.00000000
Si       1.28784994       0.19549629       2.58872286       0.00000000
H        2.84425032      -0.40392684       0.43397745       0.00000000
Si       1.43420419      -1.75545929      -1.92233610       0.00000000
Si       0.73333182      -2.92353375       0.01643298       0.00000000
Si      -2.06099453      -1.52976133      -1.62096695       0.00000000
Si      -0.38082762      -0.59434066      -2.97809650       0.00000000
Si      -2.89685073       0.57005227      -1.02245427       0.00000000
Si       2.95898079      -0.14876028      -1.04466814       0.00000000
