10
Lattice="16.2900001489832 0.0 0.0 0.0 16.2900001489832 0.0 0.0 0.0 29.34461067663915" Properties=species:S:1:pos:R:3:initial_magmoms:R:1 pbc="T T T"
Si      -2.26867574       0.36119817       0.38541212       0.00000000
Si       0.13392009      -2.16057530      -1.02937960       0.00000000
Si       1.03128733       1.64553437      -1.45566876       0.00000000
Si       0.83598652      -0.30556782       2.27822754       0.00000000
Si       2.44428194      -2.57023622      -0.43025068       0.00000000
Si       2.35672319      -2.11224287       1.90094388       0.00000000
Si      -3.13913190      -1.87910039       0.55349805       0.00000000
Si      -0.74256337      -1.73240894      -3.21508358       0.00000000
Si       2.00997425       1.73760545       2.74507095       0.00000000
Si      -1.52928892      -3.51803730       0.01305835       0.00000000
