10
Lattice="16.2900001489832 0.0 0.0 0.0 16.2900001489832 0.0 0.0 0.0 29.34461067663915" Properties=species:S:1:pos:R:3:initial_magmoms:R:1 pbc="T T T"
Si       0.12375513       0.21085776      -2.28051642       0.00000000
Si       2.19884051       0.22903740       0.81199472       0.00000000
Si      -0.28733931      -2.35916669       0.06690571       0.00000000
Si      -1.50182398       1.68951737       0.77155785       0.00000000
H        0.91103455      -1.00846504      -2.69539052       0.00000000
Si       1.53847648      -0.65671507       2.93202546       0.00000000
Si       0.38322225      -2.69120576       2.31203253       0.00000000
Si       2.81344593       2.56047851       0.06068465       0.00000000
Si      -1.61852554       1.44990775       3.20739529       0.00000000
Si      -0.72163072       3.80989709      -0.25843799       0.00000000
