10
Lattice="16.2900001489832 0.0 0.0 0.0 16.2900001489832 0.0 0.0 0.0 29.34461067663915" Properties=species:S:1:pos:R:3:initial_magmoms:R:1 pbc="T T T"
Si      -1.43154892      -1.29508759      -1.30722318       0.00000000
Si      -1.49356495       1.32561505       1.23546680       0.00000000
Si       1.27496944      -1.37705887       1.48542419       0.00000000
Si       1.28860417       1.32600601      -1.52910365       0.00000000
Si      -0.12966840       2.66166711       2.57845225       0.00000000
Si       2.62773992       2.65488232      -0.07726436       0.00000000
Si       2.60063336      -2.72816777       0.07025100       0.00000000
Si      -0.12481398      -2.68956047      -2.68754378       0.00000000
Si      -2.85819456      -0.03033198       2.60019661       0.00000000
Si       2.67076181      -0.02888217       2.87850090       0.00000000
