10
Lattice="16.2900001489832 0.0 0.0 0.0 16.2900001489832 0.0 0.0 0.0 29.34461067663915" Properties=species:S:1:pos:R:3:initial_magmoms:R:1 pbc="T T T"
Si       0.73062280      -1.18631926      -1.90599115       0.00000000
Si       0.20382048      -1.97737796       1.35906630       0.00000000
Si      -2.16956738       0.30185370       1.05834273       0.00000000
Si       1.96718042       0.67953736       1.31839467       0.00000000
H       -1.62712666       0.69095665      -1.82896155       0.00000000
Si       0.88630633      -0.50578821       3.01774107       0.00000000
Si       1.63984916      -2.85899277      -0.28285270       0.00000000
Si      -1.31675329       0.24324228       3.32142845       0.00000000
Si       1.52897941       3.00706887       1.35170080       0.00000000
Si       1.73682353       0.66575602      -3.15480975       0.00000000
