10
Lattice="16.2900001489832 0.0 0.0 0.0 16.2900001489832 0.0 0.0 0.0 29.34461067663915" Properties=species:S:1:pos:R:3:initial_magmoms:R:1 pbc="T T T"
Si       2.29853531      -0.60965326      -0.08351476       0.00000000
Si      -0.49849029       0.70282554      -2.23344766       0.00000000
Si      -1.45754776      -1.77662000       0.67762575       0.00000000
Si      -0.05227461       1.81396319       1.78538480       0.00000000
H       -0.38147922      -2.84605851       0.78150567       0.00000000
H       -3.09705483      -0.12813714       0.27158437       0.00000000
H       -0.56249371      -2.32288886      -2.48977284       0.00000000
Si      -0.41374971       3.45005913       0.10854571       0.00000000
Si      -1.51096267       2.79725367      -1.90678346       0.00000000
Si      -1.41872869      -1.26210034      -3.18887884       0.00000000
