10
Lattice="16.2900001489832 0.0 0.0 0.0 16.2900001489832 0.0 0.0 0.0 29.34461067663915" Properties=species:S:1:pos:R:3:initial_magmoms:R:1 pbc="T T T"
Si      -1.66320902      -1.35746200       1.04243795       0.00000000
Si      -0.87648346       0.42816636      -2.18570398       0.00000000
Si      -0.13392009       2.16057530       1.02937960       0.00000000
Si       2.31036185      -0.40966092       0.59912892       0.00000000
H        0.99412984      -1.65726317      -1.70025609       0.00000000
Si      -3.27305199       0.28147491       1.58287764       0.00000000
Si       2.22280310       0.04833243       2.93032348       0.00000000
Si      -2.40259583       2.52177347       1.41479171       0.00000000
Si       0.88448185       1.35580042      -3.45283362       0.00000000
Si       3.53906769       1.30109860      -0.59056029       0.00000000
