10
Lattice="16.2900001489832 0.0 0.0 0.0 16.2900001489832 0.0 0.0 0.0 29.34461067663915" Properties=species:S:1:pos:R:3:initial_magmoms:R:1 pbc="T T T"
Si       2.21514680      -0.56931922      -0.31874116       0.00000000
Si      -1.41297832      -1.84446785       0.42397093       0.00000000
Si      -0.58444660       1.58102596       1.65632222       0.00000000
Si      -0.57623758       0.82471384      -2.16888952       0.00000000
Si      -1.03039138      -2.50028208      -1.80657161       0.00000000
Si      -2.66491370       1.64318861      -1.36713607       0.00000000
Si       2.83001286       1.47615094      -1.46728922       0.00000000
Si      -1.78834880       3.02762685       0.29417972       0.00000000
Si       2.73730647      -1.49358124       1.78783831       0.00000000
Si      -2.06091308       0.28298988       2.94303850       0.00000000
