10
Lattice="16.2900001489832 0.0 0.0 0.0 16.2900001489832 0.0 0.0 0.0 29.34461067663915" Properties=species:S:1:pos:R:3:initial_magmoms:R:1 pbc="T T T"
Si       0.50424066       1.07321779      -2.03754304       0.00000000
Si      -1.17260308      -1.98661439      -0.53319158       0.00000000
Si       1.81099353      -0.92849743       1.24767416       0.00000000
Si      -1.32211270       1.39530367       1.47811738       0.00000000
H        2.42864028       2.30754368       0.57192646       0.00000000
Si       0.39433203      -2.22796703       2.66566443       0.00000000
Si       0.26656956       3.33571962      -1.39202030       0.00000000
Si      -2.73245204      -0.10420713       2.57226054       0.00000000
Si      -1.24633162       0.47314305      -3.52387692       0.00000000
Si      -0.48223287      -3.61240527       1.00434865       0.00000000
