10
Lattice="16.2900001489832 0.0 0.0 0.0 16.2900001489832 0.0 0.0 0.0 29.34461067663915" Properties=species:S:1:pos:R:3:initial_magmoms:R:1 pbc="T T T"
Si       1.47646648       1.29803608      -1.28671628       0.00000000
Si      -1.34814412       1.30388419       1.42208385       0.00000000
Si      -1.30847797      -1.25555176      -1.55935207       0.00000000
Si       1.46325480      -1.41701824       1.25863437       0.00000000
Si       0.64793476      -2.12745773      -2.51906756       0.00000000
Si       2.06091308      -0.28298988      -2.94303850       0.00000000
Si      -2.72678312       2.60872949       0.04509680       0.00000000
Si      -2.64955223      -2.68617867      -0.16076445       0.00000000
Si       0.27256428       2.74463697      -2.64885878       0.00000000
Si       0.05310540       2.70400970       2.72023661       0.00000000
