10
Lattice="16.2900001489832 0.0 0.0 0.0 16.2900001489832 0.0 0.0 0.0 29.34461067663915" Properties=species:S:1:pos:R:3:initial_magmoms:R:1 pbc="T T T"
Si      -0.78236635      -1.14013711       0.59824858       0.00000000
H       -1.32429882       0.63338779      -1.51849557       0.00000000
H        0.18225252      -0.86798008      -1.96115902       0.00000000
H        0.09958077       2.78365152       0.94923947       0.00000000
Si      -2.27673929       0.05374071       1.95814562       0.00000000
Si       1.51163056      -0.63335521      -2.63734688       0.00000000
Si       0.63430003      -2.61853607       1.72076797       0.00000000
Si      -2.23997276       1.85163545      -1.46200719       0.00000000
Si       0.89373457       2.29211705       2.14147725       0.00000000
Si      -1.94194558      -2.60265332      -0.84274787       0.00000000
