10
Lattice="16.2900001489832 0.0 0.0 0.0 16.2900001489832 0.0 0.0 0.0 29.34461067663915" Properties=species:S:1:pos:R:3:initial_magmoms:R:1 pbc="T T T"
Si       0.03810231      -2.27941085       0.67061239       0.00000000
Si       1.71944210       1.16758576       1.17058586       0.00000000
Si       0.56865133      -0.37230795      -2.30035338       0.00000000
Si      -2.25533423       0.59898331       0.73986567       0.00000000
H        2.05267034      -1.18338706      -1.98146549       0.00000000
H       -0.63830737       3.04486167       1.24761547       0.00000000
Si      -3.42932196      -1.44418996       0.27302226       0.00000000
Si      -1.90858529      -3.25086501      -0.10426140       0.00000000
Si       2.62866845      -0.50508774       2.79372431       0.00000000
Si      -0.47413674      -2.36496593       3.03602277       0.00000000
