10
Lattice="16.2900001489832 0.0 0.0 0.0 16.2900001489832 0.0 0.0 0.0 29.34461067663915" Properties=species:S:1:pos:R:3:initial_magmoms:R:1 pbc="T T T"
Si      -0.94209958       1.04384692      -0.52409475       0.00000000
H       -0.71255719       0.21652668       2.08566820       0.00000000
Si       0.17736552      -0.75067579       2.84272981       0.00000000
Si       1.38815236      -2.23656815       1.43797396       0.00000000
Si       0.35083773       2.75377566      -1.38042918       0.00000000
Si      -1.84143791       0.24180876      -2.54209428       0.00000000
Si      -0.86952763      -1.84370222      -2.48953808       0.00000000
Si       2.74662435      -1.65967409      -0.45959529       0.00000000
Si      -2.81830035       1.37300266       0.88230441       0.00000000
H       -3.06683688      -0.06631659       1.25826756       0.00000000
