10
Lattice="16.2900001489832 0.0 0.0 0.0 16.2900001489832 0.0 0.0 0.0 29.34461067663915" Properties=species:S:1:pos:R:3:initial_magmoms:R:1 pbc="T T T"
Si       0.69198292      -1.31935969      -0.30283638       0.00000000
Si       0.03916116       2.03455586      -1.49601760       0.00000000
Si       0.40687533       1.60111153       2.33298458       0.00000000
Si       1.11542518      -1.14100048      -2.54784582       0.00000000
Si      -2.13504887       1.06396507      -1.85730844       0.00000000
Si       1.90317701      -0.27955269       2.33486264       0.00000000
Si      -0.28909863      -2.79151959       1.17319753       0.00000000
Si      -1.93805390       1.10395702       2.16545620       0.00000000
Si       2.90341560      -1.10701954       0.33564366       0.00000000
Si       0.36510777       3.15037200       0.52474033       0.00000000
