10
Lattice="16.2900001489832 0.0 0.0 0.0 16.2900001489832 0.0 0.0 0.0 29.34461067663915" Properties=species:S:1:pos:R:3:initial_magmoms:R:1 pbc="T T T"
Si       1.20769174      -1.00326853       1.69823131       0.00000000
Si      -0.68248585      -1.47158974      -1.65867477       0.00000000
Si       1.08087409       1.18532557      -1.69934640       0.00000000
Si      -2.20305962       0.74903050       0.30368738       0.00000000
Si      -0.88630633       0.50578821      -3.01774107       0.00000000
H       -0.92105290      -3.02164842       1.28799365       0.00000000
Si      -0.37683657      -2.47060658       2.61384185       0.00000000
Si       3.39786597       0.24206940      -1.47333421       0.00000000
Si      -3.05587371       0.80764192      -1.95939834       0.00000000
Si      -2.17474760       2.88073992       1.24074883       0.00000000
