10
Lattice="16.2900001489832 0.0 0.0 0.0 16.2900001489832 0.0 0.0 0.0 29.34461067663915" Properties=species:S:1:pos:R:3:initial_magmoms:R:1 pbc="T T T"
Si       1.36604683       1.36655182      -1.31157469       0.00000000
Si      -1.31452156       1.40390479       1.37424333       0.00000000
Si       1.47247462      -1.32282946       1.29570248       0.00000000
Si      -1.29267667      -1.45435492      -1.36373737       0.00000000
Si       0.28417905      -2.58931181      -2.69447791       0.00000000
Si       0.06472017      -2.62993907       2.67461747       0.00000000
Si      -2.62459595       0.04100193       2.79105689       0.00000000
Si       2.76352359       2.65632887       0.10603675       0.00000000
Si       0.04434138       2.58755249      -2.83415825       0.00000000
Si      -2.71516835      -2.72521928      -0.00052233       0.00000000
