10
Lattice="16.2900001489832 0.0 0.0 0.0 16.2900001489832 0.0 0.0 0.0 29.34461067663915" Properties=species:S:1:pos:R:3:initial_magmoms:R:1 pbc="T T T"
Si      -1.40775445      -1.30710961       1.37891499       0.00000000
Si      -1.47247462       1.32282946      -1.29570248       0.00000000
Si       1.27705586       1.33871221       1.49488489       0.00000000
Si       1.44994978      -1.33749046      -1.38212236       0.00000000
Si       2.66746602       2.62000217       0.10766538       0.00000000
Si      -0.10642778       2.68938128      -2.60727717       0.00000000
Si       0.01560663      -2.71308323      -2.62803789       0.00000000
Si      -0.01128164      -2.73302220       2.61637723       0.00000000
Si      -2.76515129      -0.13152546      -2.65943986       0.00000000
Si       2.73028026      -2.71666703       0.03637264       0.00000000
