10
Lattice="16.2900001489832 0.0 0.0 0.0 16.2900001489832 0.0 0.0 0.0 29.34461067663915" Properties=species:S:1:pos:R:3:initial_magmoms:R:1 pbc="T T T"
Si      -1.26993583       1.25688754      -1.58545997       0.00000000
Si       1.14315076       1.67259206       1.29351044       0.00000000
Si       1.40814019      -1.37134108      -1.43524491       0.00000000
Si      -1.66206872      -1.15409764       1.36499391       0.00000000
Si       2.00103104       0.36870786       3.01266446       0.00000000
Si      -2.66898620      -2.62490546      -0.21271908       0.00000000
Si      -2.74493019       2.65338038      -0.42922362       0.00000000
Si       2.83454294       2.76188808       0.03119332       0.00000000
Si       0.11556126       2.67923261      -2.91075062       0.00000000
Si       2.76505027      -0.01840770      -2.85869328       0.00000000
