10
Lattice="16.2900001489832 0.0 0.0 0.0 16.2900001489832 0.0 0.0 0.0 29.34461067663915" Properties=species:S:1:pos:R:3:initial_magmoms:R:1 pbc="T T T"
Si       0.83074114      -0.69962293      -2.05321306       0.00000000
Si      -1.12407517       2.03015756      -0.10393861       0.00000000
Si       1.49424913      -0.28517274       1.81443597       0.00000000
Si      -2.10618299      -0.85695175       0.66192638       0.00000000
H       -2.20195190       1.88680556       0.96658213       0.00000000
H        1.61033167       1.08841636       2.44713512       0.00000000
Si      -1.87989860      -0.34930647       2.93924424       0.00000000
Si       0.13136256      -1.66237823       3.16948205       0.00000000
Si      -0.97256188      -1.71813890      -3.17086125       0.00000000
H       -0.42145488       2.70671384       2.59858265       0.00000000
