10
Lattice="16.2900001489832 0.0 0.0 0.0 16.2900001489832 0.0 0.0 0.0 29.34461067663915" Properties=species:S:1:pos:R:3:initial_magmoms:R:1 pbc="T T T"
Si       0.14470407      -2.27116811       0.69212199       0.00000000
Si       1.33349941       1.44228403       1.37649700       0.00000000
Si       0.56449738      -0.02182860      -2.34475177       0.00000000
Si      -2.38202156      -0.01093059       0.45096798       0.00000000
H        0.35780985       2.60343524      -1.09244117       0.00000000
Si       2.89334838      -0.44012322      -1.72895512       0.00000000
Si      -0.36264798      -1.73141525       2.92973512       0.00000000
Si      -2.02631312       0.02370195       2.82127039       0.00000000
Si      -1.25128378      -3.20776167      -1.00763524       0.00000000
Si      -0.38898891      -2.12120237      -2.98164720       0.00000000
