10
Lattice="16.2900001489832 0.0 0.0 0.0 16.2900001489832 0.0 0.0 0.0 29.34461067663915" Properties=species:S:1:pos:R:3:initial_magmoms:R:1 pbc="T T T"
Si      -0.48077981       1.96292873       1.16542121       0.00000000
Si       2.29912175      -0.15169248       0.72099708       0.00000000
Si      -1.74985553      -1.65612287       0.27997693       0.00000000
Si       0.11670156       0.23960961      -2.43583744       0.00000000
H        0.58969801      -0.72410680       2.69122359       0.00000000
H       -0.83418159      -2.87437053       0.22348855       0.00000000
H        2.53369775      -0.68838283       2.12874609       0.00000000
Si       1.38758221       3.30026281       0.48242540       0.00000000
Si      -2.10158921      -0.18599922      -3.15592484       0.00000000
Si       3.15700203      -2.10662282      -0.27536983       0.00000000
