10
Lattice="16.2900001489832 0.0 0.0 0.0 16.2900001489832 0.0 0.0 0.0 29.34461067663915" Properties=species:S:1:pos:R:3:initial_magmoms:R:1 pbc="T T T"
Si      -1.44168130      -1.43702236      -1.21536281       0.00000000
Si       1.20241362      -1.34131861       1.58219392       0.00000000
Si      -1.49278303       1.31981581       1.34320847       0.00000000
Si       1.43509689       1.43784094      -1.37975131       0.00000000
H       -2.33160401      -0.46981989      -1.97242442       0.00000000
Si       2.48828775      -2.85413835       0.32007634       0.00000000
Si       2.70210866       2.67400190       0.17003441       0.00000000
Si      -0.15364728       2.64869212       2.79504776       0.00000000
Si      -0.23089446      -2.92291473      -2.62011866       0.00000000
Si      -2.90620119      -2.69575067       0.18476834       0.00000000
