10
Lattice="16.2900001489832 0.0 0.0 0.0 16.2900001489832 0.0 0.0 0.0 29.34461067663915" Properties=species:S:1:pos:R:3:initial_magmoms:R:1 pbc="T T T"
Si       0.95348629       2.09937377       0.63689543       0.00000000
Si       2.03405087      -1.25314084      -0.31665769       0.00000000
Si      -0.86229487      -1.08655930       1.97401196       0.00000000
Si      -1.36156708       0.55767187      -1.95141661       0.00000000
H       -2.08894817      -1.71018938      -0.56447293       0.00000000
Si       2.20431395       2.04993362      -1.63516974       0.00000000
H       -2.24233481       2.62347194       0.22266691       0.00000000
Si       0.56778796       1.31127985      -3.17124273       0.00000000
Si      -0.26911080      -3.29955582       1.32405818       0.00000000
Si      -1.63919756      -3.15126795      -0.62330888       0.00000000
