10
Lattice="16.2900001489832 0.0 0.0 0.0 16.2900001489832 0.0 0.0 0.0 29.34461067663915" Properties=species:S:1:pos:R:3:initial_magmoms:R:1 pbc="T T T"
Si       1.73579726      -1.48333483       0.75104597       0.00000000
Si      -0.14384070       1.81547165       1.60972796       0.00000000
Si      -2.01875456      -1.29015172      -0.41076586       0.00000000
Si       0.80319475       0.87131953      -2.13388140       0.00000000
Si      -2.77249124       2.26248554      -1.20136836       0.00000000
Si      -1.88131583      -1.96815782      -2.63150731       0.00000000
Si       3.13952286       0.70742584      -1.99886685       0.00000000
Si      -3.77848296       0.31187205      -0.42655326       0.00000000
Si       1.59642001      -3.44210961      -0.60106566       0.00000000
Si       3.83311849      -0.55288260      -0.11714369       0.00000000
