10
Lattice="16.2900001489832 0.0 0.0 0.0 16.2900001489832 0.0 0.0 0.0 29.34461067663915" Properties=species:S:1:pos:R:3:initial_magmoms:R:1 pbc="T T T"
Si       0.13743873      -0.67800610      -2.22074145       0.00000000
Si      -1.75972841       1.60202377      -0.01578740       0.00000000
Si       2.01875456       1.29015172       0.41076586       0.00000000
Si      -0.52968890      -2.26479220       0.91238264       0.00000000
H       -1.37925314       0.54327150       2.84763036       0.00000000
Si      -1.91158265       1.85539844       2.29548217       0.00000000
Si       2.35783091      -1.57022569      -2.19588656       0.00000000
Si      -0.75373668       3.55263726      -0.79060250       0.00000000
Si      -1.75282715      -2.01051182      -2.61255069       0.00000000
Si      -2.39065526      -1.98869951       2.29923828       0.00000000
