10
Lattice="16.2900001489832 0.0 0.0 0.0 16.2900001489832 0.0 0.0 0.0 29.34461067663915" Properties=species:S:1:pos:R:3:initial_magmoms:R:1 pbc="T T T"
Si      -0.47609154      -1.90605056      -1.32505590       0.00000000
Si      -2.14943294       0.98139106       0.39849981       0.00000000
Si       0.88569871      -1.09947727       1.96752680       0.00000000
Si       2.03336343       0.86309308      -1.18311601       0.00000000
H       -1.00175356       0.81256150       2.71736964       0.00000000
H       -2.03335040       2.35498016       1.03119896       0.00000000
H        2.60423345      -1.39666715       1.66982573       0.00000000
Si       1.94317059       1.15494472       2.69321902       0.00000000
Si       1.62830769      -2.92135805      -1.10652658       0.00000000
H       -0.61181983       1.19351944       3.26887225       0.00000000
