10
Lattice="16.2900001489832 0.0 0.0 0.0 16.2900001489832 0.0 0.0 0.0 29.34461067663915" Properties=species:S:1:pos:R:3:initial_magmoms:R:1 pbc="T T T"
Si      -1.37641705       1.35915616      -1.29733111       0.00000000
Si      -1.39041016      -1.28128996       1.38721952       0.00000000
Si       1.33043689       1.50506569       1.26379609       0.00000000
Si       1.39413079      -1.21239955      -1.51965468       0.00000000
Si       0.39658005       2.30775545      -2.53161092       0.00000000
Si       2.27041877       0.63519598      -2.77016265       0.00000000
Si       0.09335799      -2.62598060       2.60863025       0.00000000
Si      -2.66746602      -2.62000217      -0.10766538       0.00000000
Si       2.71663445       0.13967046       2.57878678       0.00000000
Si       2.80158681      -2.58734072      -0.16258382       0.00000000
