10
Lattice="16.2900001489832 0.0 0.0 0.0 16.2900001489832 0.0 0.0 0.0 29.34461067663915" Properties=species:S:1:pos:R:3:initial_magmoms:R:1 pbc="T T T"
Si       0.56435077       0.99852814       2.01265881       0.00000000
Si      -0.85788028       1.30388419      -1.71915402       0.00000000
Si       1.44990287      -1.79567930      -0.26515790       0.00000000
Si      -1.87214456      -0.65899567       1.29644490       0.00000000
H        2.89724169       1.49511250       0.46285254       0.00000000
Si      -1.11581614       0.06310746       3.36978837       0.00000000
Si      -2.00103104      -0.36870786      -3.01266446       0.00000000
Si      -2.46249416       2.71627607      -0.53597931       0.00000000
Si      -1.54131094      -3.06576174       1.50666969       0.00000000
Si      -3.52732260       1.09690345       0.88491608       0.00000000
