10
Lattice="16.2900001489832 0.0 0.0 0.0 16.2900001489832 0.0 0.0 0.0 29.34461067663915" Properties=species:S:1:pos:R:3:initial_magmoms:R:1 pbc="T T T"
Si      -1.31646007       1.27021276       1.48473753       0.00000000
Si       1.40045131      -1.29370294       1.40435971       0.00000000
Si      -0.94353310      -1.91093105      -1.08363045       0.00000000
Si       0.87710248       1.78809956      -1.35533751       0.00000000
H        0.20631285      -1.38367261      -2.83834573       0.00000000
H       -1.73768690      -1.41939658      -2.27586823       0.00000000
Si      -2.50270929       2.66860991       0.00060743       0.00000000
Si       2.71746524       2.63752207      -0.04975085       0.00000000
Si      -0.00967626      -2.71362080       2.71177656       0.00000000
Si       2.69623937      -2.75247246       0.08413393       0.00000000
