10
Lattice="16.28999089631971 0.0 0.0 0.0 16.28999089631971 0.0 0.0 0.0 34.64500226677339" Properties=species:S:1:pos:R:3:initial_magmoms:R:1 pbc="T T T"
Si       1.35295124      -1.33709460      -1.30646377       0.00000000
Si       1.35399380       1.33690401       1.34583090       0.00000000
Si      -1.36215097      -1.37539402       1.34978044       0.00000000
Si      -1.23552880       1.42521210      -1.43934821       0.00000000
Si      -1.92322744      -0.41459679      -2.82402454       0.00000000
Si      -0.26275516      -2.25888869      -2.74229693       0.00000000
Si       2.48066721       0.20035071      -2.65742733       0.00000000
Si      -2.71723462       2.68231140      -0.02365909       0.00000000
Si       0.00051873       2.69671176       2.70561336       0.00000000
Si       2.71467306      -0.01824480       2.70471259       0.00000000
