10
Lattice="16.28999089631971 0.0 0.0 0.0 16.28999089631971 0.0 0.0 0.0 34.64500226677339" Properties=species:S:1:pos:R:3:initial_magmoms:R:1 pbc="T T T"
Si      -1.35657946      -1.35468062      -1.35805020       0.00000000
Si       1.35730398      -1.35736177       1.35683763       0.00000000
Si      -1.35765184       1.35733330       1.35680298       0.00000000
Si       1.35779268       1.35831070      -1.35787698       0.00000000
Si      -2.71251536       0.00151171       2.71384848       0.00000000
Si       0.00047078      -2.71308877       2.71388312       0.00000000
Si       2.71518951       2.71427401      -0.00041574       0.00000000
Si      -0.00288659       2.71345951      -2.71675866       0.00000000
Si      -2.71541498      -2.71481551       0.00024252       0.00000000
Si      -2.71543127       2.71507222      -0.00017323       0.00000000
