10
Lattice="16.28999089631971 0.0 0.0 0.0 16.28999089631971 0.0 0.0 0.0 34.64500226677339" Properties=species:S:1:pos:R:3:initial_magmoms:R:1 pbc="T T T"
Si      -0.67004028       0.42427305      -2.18679377       0.00000000
Si       2.31643800      -0.02897991       0.26163920       0.00000000
Si      -1.04203872       1.62926064       1.34841889       0.00000000
Si      -0.74587023      -2.20302702       0.44210512       0.00000000
Si       2.70291825      -1.33504695      -1.76114503       0.00000000
Si       0.86477094      -1.02907188      -3.30025012       0.00000000
Si       2.69366553       0.01166364       2.65114099       0.00000000
Si       3.15258741       2.07712161      -0.30459903       0.00000000
Si      -2.02148800       0.50192748       3.18467432       0.00000000
Si      -3.10686857      -2.06459460       0.76652110       0.00000000
