10
Lattice="16.28999089631971 0.0 0.0 0.0 16.28999089631971 0.0 0.0 0.0 34.64500226677339" Properties=species:S:1:pos:R:3:initial_magmoms:R:1 pbc="T T T"
Si       1.58817726      -1.33807689      -1.05698496       0.00000000
Si      -1.63080493       0.54130041      -1.61078564       0.00000000
Si       0.84409893       1.95867702       1.02677451       0.00000000
Si      -0.57464604      -1.38515499       1.83462712       0.00000000
Si       1.05871968      -0.47074842       3.33011412       0.00000000
Si      -0.49617711       3.49137054      -0.05906976       0.00000000
Si      -2.73635252      -1.57973904      -1.73356759       0.00000000
Si      -2.50470711       2.56642434      -0.78238852       0.00000000
Si       2.55906126      -2.62861956       0.62835676       0.00000000
Si       3.08434860       0.05103657      -2.14431897       0.00000000
