10
Lattice="16.28999089631971 0.0 0.0 0.0 16.28999089631971 0.0 0.0 0.0 34.64500226677339" Properties=species:S:1:pos:R:3:initial_magmoms:R:1 pbc="T T T"
Si       0.93388941       1.80361251      -1.24216261       0.00000000
Si      -1.77608241      -0.97169850      -1.26239530       0.00000000
Si       1.85696226      -1.67172867       0.15593724       0.00000000
Si      -0.76989798      -0.52494525       2.71419493       0.00000000
Si       1.58285043      -0.59826654       2.42681448       0.00000000
Si       2.27959002       0.38970567      -2.65346221       0.00000000
Si      -0.44992980      -2.35627519      -2.65418975       0.00000000
Si      -1.51985700      -2.78171461       2.12935232       0.00000000
Si      -3.34466280      -1.94230557       0.17478413       0.00000000
Si       0.97441893      -3.63129317      -1.20187045       0.00000000
