10
Lattice="16.28999089631971 0.0 0.0 0.0 16.28999089631971 0.0 0.0 0.0 34.64500226677339" Properties=species:S:1:pos:R:3:initial_magmoms:R:1 pbc="T T T"
Si       1.00074357       2.11288793       0.45419623       0.00000000
Si       1.90070091      -1.01263268      -1.10479509       0.00000000
Si       0.42319791      -1.07622884       2.13946867       0.00000000
Si      -2.28794679       0.00870538      -0.97213931       0.00000000
Si       0.18844272      -3.12557600       0.86498225       0.00000000
Si       2.26075878       2.45735627      -1.58230743       0.00000000
Si       2.51564841      -2.72621036       0.44487672       0.00000000
Si       3.67621317       0.60915803      -1.27337777       0.00000000
Si      -2.48697801       1.13278868       2.85644739       0.00000000
Si      -2.52077976       1.81243517      -2.51713405       0.00000000
