10
Lattice="16.28999089631971 0.0 0.0 0.0 16.28999089631971 0.0 0.0 0.0 34.64500226677339" Properties=species:S:1:pos:R:3:initial_magmoms:R:1 pbc="T T T"
Si       1.33947783       1.35324288       1.38010522       0.00000000
Si      -1.37163429      -1.35829278       1.38294612       0.00000000
Si       1.50500052      -1.24558227      -1.42905171       0.00000000
Si      -1.21310001       1.22666958      -1.70709880       0.00000000
Si      -2.12887494      -0.78625314      -2.69090417       0.00000000
Si      -0.15763833      -2.25150606      -2.76182633       0.00000000
Si       0.71133543       2.33021934      -2.90071822       0.00000000
Si      -2.71919196       2.71091664      -0.02915725       0.00000000
Si       2.70326034      -0.00211770       2.74110025       0.00000000
Si       2.72626182      -2.71994130      -0.00159367       0.00000000
