10
Lattice="16.28999089631971 0.0 0.0 0.0 16.28999089631971 0.0 0.0 0.0 34.64500226677339" Properties=species:S:1:pos:R:3:initial_magmoms:R:1 pbc="T T T"
Si      -1.34343630      -1.36492281      -1.37970334       0.00000000
Si       1.39541769      -1.28886480       1.41032954       0.00000000
Si       1.37450133       1.34877942      -1.37530342       0.00000000
Si      -1.18827405       1.55624886       1.43291809       0.00000000
Si       2.35401903       0.52250175       2.59692153       0.00000000
Si       0.84574422       2.43193410       2.78310388       0.00000000
Si      -2.68912062      -2.69848737       0.00408811       0.00000000
Si      -2.69544114       2.72955240      -0.00294483       0.00000000
Si      -2.69622306      -0.00560376      -2.73726851       0.00000000
Si       2.74111830      -2.70277164      -0.00097006       0.00000000
