10
Lattice="16.28999089631971 0.0 0.0 0.0 16.28999089631971 0.0 0.0 0.0 34.64500226677339" Properties=species:S:1:pos:R:3:initial_magmoms:R:1 pbc="T T T"
Si      -1.02216492       2.01675087       0.58581267       0.00000000
Si       0.80611065       0.61882452      -2.12377447       0.00000000
Si      -1.79305659      -1.54401507       0.11682301       0.00000000
Si       2.08293714       0.12792537       1.35798091       0.00000000
Si       1.15080705       2.57856039       1.37149247       0.00000000
Si       0.65697570      -1.04394465       2.97579949       0.00000000
Si      -1.54614906       0.65976129      -3.00864297       0.00000000
Si      -2.05218162       2.45454462      -1.45117602       0.00000000
Si       3.32420256      -1.16502822      -0.38511406       0.00000000
Si      -2.38163058      -1.44036180      -2.23810304       0.00000000
