10
Lattice="16.28999089631971 0.0 0.0 0.0 16.28999089631971 0.0 0.0 0.0 34.64500226677339" Properties=species:S:1:pos:R:3:initial_magmoms:R:1 pbc="T T T"
Si      -2.32042905      -0.02096523      -0.46493619       0.00000000
Si       0.83548152       2.10012309      -0.77053993       0.00000000
Si       0.58857399      -0.10365327       2.35492606       0.00000000
Si       1.48426335      -1.86870735      -0.62669380       0.00000000
Si       0.97199172      -2.32733601       1.69528484       0.00000000
Si       2.38163058       1.44036180       2.23810304       0.00000000
Si      -0.65836035       2.29328991      -2.72645927       0.00000000
Si      -3.05085636      -1.91980908       0.83487573       0.00000000
Si       3.18774123       2.05918632       0.11432857       0.00000000
Si      -3.27008718       1.83668121       0.97823683       0.00000000
