10
Lattice="16.28999089631971 0.0 0.0 0.0 16.28999089631971 0.0 0.0 0.0 34.64500226677339" Properties=species:S:1:pos:R:3:initial_magmoms:R:1 pbc="T T T"
Si       1.35319401       1.33721352      -1.37592703       0.00000000
Si      -1.36106208      -1.38287439      -1.37225466       0.00000000
Si       1.50716709      -1.17330354       1.43586292       0.00000000
Si      -1.29477807       1.47509208       1.39993603       0.00000000
Si       2.70347211       2.68618842       0.00436527       0.00000000
Si      -2.71524001       2.69827560      -0.01489736       0.00000000
Si       2.69544114      -2.72955240       0.00294483       0.00000000
Si      -0.00188964       2.69451261      -2.73356150       0.00000000
Si      -2.70195551      -2.73836529       0.01877760       0.00000000
Si       2.71208952      -0.01915704      -2.73408117       0.00000000
