10
Lattice="16.28999089631971 0.0 0.0 0.0 16.28999089631971 0.0 0.0 0.0 34.64500226677339" Properties=species:S:1:pos:R:3:initial_magmoms:R:1 pbc="T T T"
Si       1.03001670      -0.43779375       2.03698869       0.00000000
Si       0.28931040       2.31376644      -0.35628940       0.00000000
Si      -2.38995477      -0.04588893       0.15701124       0.00000000
Si       0.50603256      -1.79478333      -1.55746695       0.00000000
Si      -2.23461333       0.29089053      -2.32225580       0.00000000
Si       2.85829227      -1.83572010      -0.67259845       0.00000000
Si       2.05218162      -2.45454462       1.45117602       0.00000000
Si      -1.54883691       2.61974151      -1.89539449       0.00000000
Si      -0.56949840      -1.11946509       3.57550481       0.00000000
Si      -3.15947808       1.44578637       1.84696075       0.00000000
