10
Lattice="16.28999089631971 0.0 0.0 0.0 16.28999089631971 0.0 0.0 0.0 34.64500226677339" Properties=species:S:1:pos:R:3:initial_magmoms:R:1 pbc="T T T"
Si      -2.31643800       0.02897991      -0.26163920       0.00000000
Si       0.83614941       2.10610152      -0.56623823       0.00000000
Si       0.37722753       0.04064355       2.38950179       0.00000000
Si       0.38648025      -1.30606704      -2.02278423       0.00000000
Si       2.66196519       1.41247332      -1.88541672       0.00000000
Si       0.07451046       2.39089959       2.88870190       0.00000000
Si      -3.06230823      -2.17404711       0.18046592       0.00000000
Si       1.71328446       3.11521815       1.38462293       0.00000000
Si      -2.98647828       0.45325296      -2.44843297       0.00000000
Si      -1.11894381      -1.34846991       3.47683579       0.00000000
