10
Lattice="16.28999089631971 0.0 0.0 0.0 16.28999089631971 0.0 0.0 0.0 34.64500226677339" Properties=species:S:1:pos:R:3:initial_magmoms:R:1 pbc="T T T"
Si      -2.04307551       0.23802948      -1.15132336       0.00000000
Si       0.80765820      -2.24321445      -0.29361656       0.00000000
Si       0.89608032       2.07717048      -0.82493261       0.00000000
Si      -0.32081526       0.25143615       2.40637391       0.00000000
Si      -2.34579258       2.58828552      -0.65212324       0.00000000
Si      -3.53924685      -1.15108398      -0.06398935       0.00000000
Si       1.77650595      -0.31231188       3.27374667       0.00000000
Si      -0.57168126      -3.51992691       1.12398844       0.00000000
Si      -0.28149120       2.58605379       2.72711752       0.00000000
Si       2.67871131       1.47103587      -2.21703887       0.00000000
