10
Lattice="16.28999089631971 0.0 0.0 0.0 16.28999089631971 0.0 0.0 0.0 34.64500226677339" Properties=species:S:1:pos:R:3:initial_magmoms:R:1 pbc="T T T"
Si       2.09732121      -0.56374803       0.86737276       0.00000000
Si       0.03932406       2.33461764       0.32074361       0.00000000
Si      -1.68305022      -1.35777150       1.07649011       0.00000000
Si       0.32081526      -0.25143615      -2.40637391       0.00000000
Si      -2.24754759      -2.69306280      -0.78502155       0.00000000
Si      -1.93082112       2.98476783      -0.77656816       0.00000000
Si       2.44363032      -2.84982147       0.63126694       0.00000000
Si       1.54469925       3.25772307      -1.32274693       0.00000000
Si       1.12847346      -2.49465060      -2.69999047       0.00000000
Si       1.21689558       1.82573433      -3.23130652       0.00000000
