10
Lattice="16.28999089631971 0.0 0.0 0.0 16.28999089631971 0.0 0.0 0.0 34.64500226677339" Properties=species:S:1:pos:R:3:initial_magmoms:R:1 pbc="T T T"
Si       1.33240797       1.35957969       1.38183747       0.00000000
Si      -1.38539934      -1.35708243       1.38076348       0.00000000
Si      -1.22126130       1.47435903      -1.42745804       0.00000000
Si       1.61274258      -1.19262837      -1.39674869       0.00000000
Si       2.68934868       2.70339066       0.01328290       0.00000000
Si       2.69909010      -2.70401687       0.03705632       0.00000000
Si       2.69169444       0.00224802       2.74304037       0.00000000
Si      -2.73417876      -2.70114440      -0.01038311       0.00000000
Si      -2.72626182       2.71994130       0.00159367       0.00000000
Si      -0.02176344      -2.71304153       2.74175851       0.00000000
