10
Lattice="16.28999089631971 0.0 0.0 0.0 16.28999089631971 0.0 0.0 0.0 34.64500226677339" Properties=species:S:1:pos:R:3:initial_magmoms:R:1 pbc="T T T"
Si      -1.35783666      -1.35431225       1.35721872       0.00000000
Si      -1.35786924       1.35776328      -1.35718408       0.00000000
Si       1.35780408      -1.35804266      -1.35739195       0.00000000
Si       1.35936792       1.35738699       1.35728801       0.00000000
Si       2.70883152       0.00062479       2.71568467       0.00000000
Si      -2.71397916      -0.00167553       2.71325951       0.00000000
Si      -2.71370223       0.00127639      -2.71381383       0.00000000
Si       0.00143352      -2.71315889      -2.71461067       0.00000000
Si       2.71492398      -2.71477160       0.00017323       0.00000000
Si      -2.71495656       2.71480662       0.00003465       0.00000000
