10
Lattice="16.28999089631971 0.0 0.0 0.0 16.28999089631971 0.0 0.0 0.0 34.64500226677339" Properties=species:S:1:pos:R:3:initial_magmoms:R:1 pbc="T T T"
Si       1.36547667       1.33811436      -1.37364046       0.00000000
Si       1.38583917      -1.32846123       1.37232395       0.00000000
Si      -1.35524655      -1.37468282      -1.37679316       0.00000000
Si      -1.23092127       1.55410347       1.47102762       0.00000000
Si      -2.69185734      -2.71210811      -0.00436527       0.00000000
Si      -2.69682579       2.71567821       0.00100471       0.00000000
Si       0.01009980       2.69974659      -2.73522446       0.00000000
Si       2.73742047       2.70056109      -0.00533533       0.00000000
Si      -2.70471015      -0.01792063      -2.73518981       0.00000000
Si       2.72618037      -0.01615968      -2.73564020       0.00000000
