10
Lattice="16.28999089631971 0.0 0.0 0.0 16.28999089631971 0.0 0.0 0.0 34.64500226677339" Properties=species:S:1:pos:R:3:initial_magmoms:R:1 pbc="T T T"
Si      -1.46590452       1.16157474      -1.47002291       0.00000000
Si       1.23092127      -1.55410347      -1.47102762       0.00000000
Si       1.15028577       1.77360633       1.30390003       0.00000000
Si      -1.88853228      -0.89985960       1.33937654       0.00000000
Si      -0.12396690       2.50150869      -2.84827116       0.00000000
Si      -2.81160513       2.57548158      -0.05872331       0.00000000
Si       2.76672618       2.65134411      -0.11048297       0.00000000
Si       2.59639794      -0.21598911      -2.84466808       0.00000000
Si       2.61676044      -2.88256470      -0.09870367       0.00000000
Si      -2.77107561      -2.85942410      -0.01843115       0.00000000
