10
Lattice="16.28999089631971 0.0 0.0 0.0 16.28999089631971 0.0 0.0 0.0 34.64500226677339" Properties=species:S:1:pos:R:3:initial_magmoms:R:1 pbc="T T T"
Si      -0.21005955      -2.19684401       0.71299455       0.00000000
Si       0.42016797       0.18094932      -2.33933580       0.00000000
Si      -2.21586028       0.80234766       0.47016759       0.00000000
Si       1.49783292       1.06039755       1.60499992       0.00000000
Si       0.19456776       2.99621970       1.90357071       0.00000000
Si      -1.34780202      -1.88236556       2.80506882       0.00000000
Si       2.59520877       1.08457191      -2.42781918       0.00000000
Si      -1.94204656       1.98825966       2.50566654       0.00000000
Si       1.93000662      -2.97244349       1.21901973       0.00000000
Si      -2.73481733       2.18077488      -1.37620419       0.00000000
