10
Lattice="16.28999089631971 0.0 0.0 0.0 16.28999089631971 0.0 0.0 0.0 34.64500226677339" Properties=species:S:1:pos:R:3:initial_magmoms:R:1 pbc="T T T"
Si      -1.35606105      -1.35622395      -1.35770375       0.00000000
Si      -1.35669636       1.35723393       1.35718408       0.00000000
Si       1.35769005      -1.35786924       1.35711479       0.00000000
Si       1.35930276       1.35790182      -1.35673369       0.00000000
Si      -2.71402803       2.71415835      -0.00079684       0.00000000
Si      -2.71414206       0.00174303       2.71422957       0.00000000
Si       2.71515204       2.71487511      -0.00024252       0.00000000
Si       0.00236205      -2.71564726       2.71440280       0.00000000
Si      -2.71487511      -2.71527096      -0.00006929       0.00000000
Si       0.00366525       2.71666701       2.71357132       0.00000000
