10
Lattice="16.28999089631971 0.0 0.0 0.0 16.28999089631971 0.0 0.0 0.0 34.64500226677339" Properties=species:S:1:pos:R:3:initial_magmoms:R:1 pbc="T T T"
Si       1.61644041       0.87773778      -1.41438301       0.00000000
Si      -1.36679616       1.62452025       1.19598079       0.00000000
Si       1.78833249      -0.21709683       1.69784857       0.00000000
Si      -1.15028577      -1.77360633      -1.30390003       0.00000000
Si       0.09686034       2.10530331      -2.76803329       0.00000000
Si       0.99240309      -2.40802038       2.68308370       0.00000000
Si       2.99597535       2.24189496       0.09645174       0.00000000
Si      -2.61619029      -0.61203159      -2.77392295       0.00000000
Si      -2.53042344       0.55197036       2.91250303       0.00000000
Si      -3.00328956       2.61324180      -0.17603135       0.00000000
