10
Lattice="16.28999089631971 0.0 0.0 0.0 16.28999089631971 0.0 0.0 0.0 34.64500226677339" Properties=species:S:1:pos:R:3:initial_magmoms:R:1 pbc="T T T"
Si       1.10819241      -1.34672688       1.57520520       0.00000000
Si      -0.41759415       2.32844373       0.21712035       0.00000000
Si      -2.14158114      -1.03162941      -0.08851803       0.00000000
Si       1.18325673      -0.51854328      -2.00920338       0.00000000
Si      -1.36239786      -3.26705724      -0.55407783       0.00000000
Si      -0.19666917      -3.33977580       1.45422478       0.00000000
Si      -1.26226323       2.80707651      -1.97864648       0.00000000
Si       0.25011666      -0.74987757       3.68512166       0.00000000
Si       2.77658163       1.21283937      -2.31633150       0.00000000
Si      -2.02259898       0.94506435      -3.16981161       0.00000000
