10
Lattice="16.28999089631971 0.0 0.0 0.0 16.28999089631971 0.0 0.0 0.0 34.64500226677339" Properties=species:S:1:pos:R:3:initial_magmoms:R:1 pbc="T T T"
Si      -1.35435060      -1.35527913       1.35621402       0.00000000
Si       1.35713619      -1.35707103      -1.35759982       0.00000000
Si      -1.35752715       1.35765747      -1.35784233       0.00000000
Si       1.35995436       1.36029645       1.35697621       0.00000000
Si       2.71049310      -0.00092853       2.71533822       0.00000000
Si      -2.71305063       0.00149868      -2.71492247       0.00000000
Si       0.00128691      -2.71404432      -2.71409099       0.00000000
Si      -0.00583182      -2.71406061       2.71499176       0.00000000
Si      -2.71471221      -2.71471221      -0.00017323       0.00000000
Si       2.71606428       0.00169416      -2.71353667       0.00000000
