10
Lattice="16.28999089631971 0.0 0.0 0.0 16.28999089631971 0.0 0.0 0.0 34.64500226677339" Properties=species:S:1:pos:R:3:initial_magmoms:R:1 pbc="T T T"
Si       0.69784731      -1.45310058       1.65824932       0.00000000
Si      -1.55738916       1.63266525       0.58210565       0.00000000
Si       1.95773220       1.31333238      -0.36664826       0.00000000
Si      -1.21826394      -1.35591444      -1.72961806       0.00000000
Si       0.35756550       2.27436093      -1.85288505       0.00000000
Si      -0.58857399       0.39907242      -3.12865332       0.00000000
Si       3.28263048      -0.44154045      -1.60933054       0.00000000
Si       0.91898406      -0.14576292       3.63246123       0.00000000
Si       0.29001087      -3.26534679      -1.91580041       0.00000000
Si      -3.23788185       0.67210911       1.91129655       0.00000000
