10
Lattice="16.28999089631971 0.0 0.0 0.0 16.28999089631971 0.0 0.0 0.0 34.64500226677339" Properties=species:S:1:pos:R:3:initial_magmoms:R:1 pbc="T T T"
Si       0.69895503       0.98311779       1.99569183       0.00000000
Si      -1.73809413       1.12194117      -1.21351117       0.00000000
Si       1.95281262       0.25860375      -1.39186374       0.00000000
Si       0.14328684      -2.41447122       0.37028599       0.00000000
Si       2.43597402      -2.31627510       0.95533647       0.00000000
Si       2.41562781      -0.53864514       2.60845832       0.00000000
Si      -2.33308638      -0.63604305      -2.68006958       0.00000000
Si       3.44745270      -1.51697367      -0.97737071       0.00000000
Si       1.52381547       3.15939663       1.68787081       0.00000000
Si      -1.08367596       1.58925240       3.38779808       0.00000000
