10
Lattice="16.28999089631971 0.0 0.0 0.0 16.28999089631971 0.0 0.0 0.0 34.64500226677339" Properties=species:S:1:pos:R:3:initial_magmoms:R:1 pbc="T T T"
Si       1.78263099      -0.60613461      -1.39210626       0.00000000
Si      -0.89608032      -2.07717048       0.82493261       0.00000000
Si       0.32780367       1.43198874       1.90855960       0.00000000
Si      -1.60309890       1.23543360      -1.33126960       0.00000000
Si      -3.24187290       0.51111504       0.17280937       0.00000000
Si      -2.93915583      -1.83914100      -0.32639075       0.00000000
Si       2.60749143       1.57014423      -1.69992728       0.00000000
Si       2.57484627       0.82539801       2.41264466       0.00000000
Si      -1.17757152       0.50888331       3.55205013       0.00000000
Si       1.08367596      -1.58925240      -3.38779808       0.00000000
