10
Lattice="16.28999089631971 0.0 0.0 0.0 16.28999089631971 0.0 0.0 0.0 34.64500226677339" Properties=species:S:1:pos:R:3:initial_magmoms:R:1 pbc="T T T"
Si       1.64535516       1.26830877       1.06169669       0.00000000
Si      -1.38583917       1.32846123      -1.37232395       0.00000000
Si      -1.16654319      -1.21540376       1.68028355       0.00000000
Si       1.34912151      -1.40293424      -1.37329401       0.00000000
Si      -2.59928127      -2.52233417       0.11051762       0.00000000
Si      -0.02036250       2.66657559      -2.74596441       0.00000000
Si       2.69447663      -0.04864012      -2.74741951       0.00000000
Si      -2.74108572      -0.04622159      -2.74911711       0.00000000
Si      -2.61676044       2.88256470       0.09870367       0.00000000
Si      -0.01940139      -2.76329585      -2.74901318       0.00000000
