10
Lattice="16.28999089631971 0.0 0.0 0.0 16.28999089631971 0.0 0.0 0.0 34.64500226677339" Properties=species:S:1:pos:R:3:initial_magmoms:R:1 pbc="T T T"
Si      -0.16550640      -0.00913869      -2.31841020       0.00000000
Si      -1.99207152       0.85750560       1.00907090       0.00000000
Si       1.30375386       1.94372280       0.63701801       0.00000000
Si      -0.11445354      -2.45622968       0.47920994       0.00000000
Si      -1.12919022       0.93489939       3.23885914       0.00000000
Si      -3.55871340      -0.88427007       0.71510789       0.00000000
Si      -2.15169723      -2.58441569       1.68832119       0.00000000
Si       1.05463089       3.40027686      -1.31003220       0.00000000
Si      -1.55877381      -1.85061079      -2.97053344       0.00000000
Si       1.85546358       0.16122213      -3.37421724       0.00000000
