10
Lattice="16.28999089631971 0.0 0.0 0.0 16.28999089631971 0.0 0.0 0.0 34.64500226677339" Properties=species:S:1:pos:R:3:initial_magmoms:R:1 pbc="T T T"
Si       2.02096998       0.17036082      -1.05580703       0.00000000
Si       0.16550640       0.00913869       2.31841020       0.00000000
Si      -1.39326741      -1.84147210      -0.65212324       0.00000000
Si       0.79592940       2.19092355      -0.98523513       0.00000000
Si      -0.22206528      -3.48533414       0.70634270       0.00000000
Si      -3.46364496      -1.15634402       0.63112836       0.00000000
Si       0.05105286      -2.44709099       2.79762014       0.00000000
Si      -0.99240309       2.40802038      -2.68308370       0.00000000
Si       1.22013729       3.40941555       1.00837800       0.00000000
Si       2.11942674      -0.97984187      -3.02399071       0.00000000
