10
Lattice="16.28999089631971 0.0 0.0 0.0 16.28999089631971 0.0 0.0 0.0 34.64500226677339" Properties=species:S:1:pos:R:3:initial_magmoms:R:1 pbc="T T T"
Si      -1.49467266      -1.85645794      -0.01382336       0.00000000
Si       0.50992587       1.09803397       2.09595452       0.00000000
Si      -1.59500277       1.73562457      -0.57819077       0.00000000
Si       2.09085408      -0.85543514      -0.95994426       0.00000000
Si      -1.68604758       1.13569645       3.07987313       0.00000000
Si       2.53677815      -2.67758797       0.60673826       0.00000000
Si      -0.58026609      -1.65550450      -3.33783996       0.00000000
Si      -0.17928774      -3.78201739      -0.44162009       0.00000000
Si      -2.61750978      -1.78369051      -2.12872871       0.00000000
Si      -0.31247478       3.66227545      -1.13327330       0.00000000
