10
Lattice="16.28999089631971 0.0 0.0 0.0 16.28999089631971 0.0 0.0 0.0 34.64500226677339" Properties=species:S:1:pos:R:3:initial_magmoms:R:1 pbc="T T T"
Si       1.23398379      -1.46476422       1.38927923       0.00000000
Si      -1.46554614       1.28340765       1.38366673       0.00000000
Si      -1.57315788      -0.95267178      -1.54606323       0.00000000
Si       1.74889440       0.78688845      -1.45300670       0.00000000
Si       2.59543683      -0.09265752       2.75537400       0.00000000
Si      -2.67662619      -2.69379585      -0.05146172       0.00000000
Si       2.75750604       2.60279991      -0.26108142       0.00000000
Si      -0.12471624       2.62032795       2.75686374       0.00000000
Si       2.71568961      -2.72186352      -0.02640990       0.00000000
Si      -2.74900266       2.68928352      -0.08615178       0.00000000
