10
Lattice="16.28999089631971 0.0 0.0 0.0 16.28999089631971 0.0 0.0 0.0 34.64500226677339" Properties=species:S:1:pos:R:3:initial_magmoms:R:1 pbc="T T T"
Si      -1.35633798      -1.35734796      -1.35631795       0.00000000
Si      -1.35721764       1.35746199       1.35725337       0.00000000
Si       1.35777943      -1.35773892       1.35697621       0.00000000
Si       1.35906961       1.35819504      -1.35680298       0.00000000
Si      -0.00360009      -2.71391074      -2.71263590       0.00000000
Si       0.00291591      -2.71356051       2.71402170       0.00000000
Si      -2.71316466       0.00234576       2.71443744       0.00000000
Si       2.71254468      -0.00161271      -2.71658544       0.00000000
Si      -2.71454931      -2.71525304      -0.00006929       0.00000000
Si       2.71479433       2.71508688      -0.00027716       0.00000000
