10
Lattice="16.28999089631971 0.0 0.0 0.0 16.28999089631971 0.0 0.0 0.0 34.64500226677339" Properties=species:S:1:pos:R:3:initial_magmoms:R:1 pbc="T T T"
Si       1.35677781       1.35562122       1.35579828       0.00000000
Si      -1.35892809      -1.35876519       1.35593686       0.00000000
Si      -1.36112724       1.35492075      -1.36238083       0.00000000
Si       1.35902583      -1.35806472      -1.36387057       0.00000000
Si       2.71354045      -0.00158013       2.71256661       0.00000000
Si      -0.00092853       2.71337643       2.71332880       0.00000000
Si      -2.71399545       2.71523349      -0.00048503       0.00000000
Si      -2.71606428      -0.00169416       2.71353667       0.00000000
Si      -0.00096111      -2.71650411       2.71336345       0.00000000
Si      -2.71477737      -2.71573848      -0.00055432       0.00000000
