10
Lattice="16.28999089631971 0.0 0.0 0.0 16.28999089631971 0.0 0.0 0.0 34.64500226677339" Properties=species:S:1:pos:R:3:initial_magmoms:R:1 pbc="T T T"
Si       1.35707103       1.35648459       1.35694156       0.00000000
Si      -1.35877985       1.35523026      -1.35721872       0.00000000
Si      -1.35764770      -1.35866745       1.35704550       0.00000000
Si       1.35578412      -1.35780408      -1.36355876       0.00000000
Si      -2.71148203       2.71432125       0.00058897       0.00000000
Si       0.00004887       2.71399545       2.71454138       0.00000000
Si      -2.71337241      -2.71555929       0.00051968       0.00000000
Si      -2.71515810      -0.00136836       2.71377919       0.00000000
Si       2.71533123       2.71440270       0.00038110       0.00000000
Si       2.71546155      -0.00205254       2.71457602       0.00000000
