10
Lattice="16.28999089631971 0.0 0.0 0.0 16.28999089631971 0.0 0.0 0.0 34.64500226677339" Properties=species:S:1:pos:R:3:initial_magmoms:R:1 pbc="T T T"
Si       1.44850680      -1.24810722       1.33657029       0.00000000
Si       1.36702422       1.33152831      -1.37170034       0.00000000
Si      -1.35382932      -1.38074040      -1.37228931       0.00000000
Si      -1.21285566       1.57248999       1.48783045       0.00000000
Si      -0.09071901      -2.10194757       2.91035504       0.00000000
Si      -2.69127090       2.71117728       0.00062361       0.00000000
Si      -2.68633503      -2.72701116       0.00173225       0.00000000
Si       0.01167993       2.69276958      -2.72992377       0.00000000
Si       2.73554712       2.69188992       0.00401882       0.00000000
Si      -2.70350469      -0.02410920      -2.73040880       0.00000000
