10
Lattice="16.28999089631971 0.0 0.0 0.0 16.28999089631971 0.0 0.0 0.0 34.64500226677339" Properties=species:S:1:pos:R:3:initial_magmoms:R:1 pbc="T T T"
Si      -1.10439684      -1.47243681       1.46662770       0.00000000
Si      -0.84691710       2.19069549      -0.35119658       0.00000000
Si       2.35511046       0.01514970      -0.34783602       0.00000000
Si      -0.48281931      -1.48095648      -1.82212027       0.00000000
Si       0.54595935      -3.17765772       1.37679316       0.00000000
Si       0.16456158       2.98999692      -2.28390376       0.00000000
Si       3.18373389       2.18082375      -0.12974561       0.00000000
Si      -1.38438936      -0.33821298      -3.60529953       0.00000000
Si      -3.13960428       2.09249937      -0.93624706       0.00000000
Si      -3.45066183      -1.73001429       0.50803460       0.00000000
