10
Lattice="16.28999089631971 0.0 0.0 0.0 16.28999089631971 0.0 0.0 0.0 34.64500226677339" Properties=species:S:1:pos:R:3:initial_magmoms:R:1 pbc="T T T"
Si       0.82862343       2.16567405       0.21809041       0.00000000
Si      -2.35511046      -0.01514970       0.34783602       0.00000000
Si       1.25387618      -1.06629453       1.77146925       0.00000000
Si       0.44272962      -0.79358364      -3.16676285       0.00000000
Si       1.38803736       1.39404933      -2.64549385       0.00000000
Si      -2.83792977      -1.49610618      -1.47428425       0.00000000
Si       2.74956371      -1.47676995      -1.76197651       0.00000000
Si      -0.90785799      -2.65408083      -2.26917963       0.00000000
Si       2.65215602      -2.43419841       0.40021929       0.00000000
Si       0.80845641       2.61115668       2.51346167       0.00000000
