10
Lattice="16.28999089631971 0.0 0.0 0.0 16.28999089631971 0.0 0.0 0.0 34.64500226677339" Properties=species:S:1:pos:R:3:initial_magmoms:R:1 pbc="T T T"
Si      -1.35658233      -1.35430173      -1.35759982       0.00000000
Si      -1.35736425       1.35731566       1.35649118       0.00000000
Si       1.35768145      -1.35790182       1.35683763       0.00000000
Si       1.35883552       1.36013489      -1.35829272       0.00000000
Si      -2.71218726       0.00197109       2.71433351       0.00000000
Si       0.00060273      -2.71461447       2.71398706       0.00000000
Si      -0.00361638       2.71597698      -2.71305164       0.00000000
Si      -2.71456560       2.71463469      -0.00048503       0.00000000
Si       2.71588576       0.00172674       2.71364061       0.00000000
Si       0.00289962       2.71632722       2.71360596       0.00000000
