10
Lattice="16.28999089631971 0.0 0.0 0.0 16.28999089631971 0.0 0.0 0.0 34.64500226677339" Properties=species:S:1:pos:R:3:initial_magmoms:R:1 pbc="T T T"
Si       0.41930460       0.62429796       2.24274548       0.00000000
Si       1.99984185      -0.00329058      -1.28837906       0.00000000
Si      -1.57092615       1.22751733      -1.30476616       0.00000000
Si      -0.68885523      -2.22018039       0.56648075       0.00000000
Si      -1.92754683      -0.20875635      -3.18668373       0.00000000
Si       0.87583185      -3.01228164       2.18991182       0.00000000
Si       1.31865921       2.81565224       2.26121127       0.00000000
Si       1.52392950      -1.27625634      -3.29896825       0.00000000
Si       2.68698663       2.23815056      -1.63552218       0.00000000
Si      -3.48910623       1.66368860       0.09139357       0.00000000
