10
Lattice="16.28999089631971 0.0 0.0 0.0 16.28999089631971 0.0 0.0 0.0 34.64500226677339" Properties=species:S:1:pos:R:3:initial_magmoms:R:1 pbc="T T T"
Si       1.16799300      -1.44339174      -1.60018426       0.00000000
Si      -0.82653831      -1.85569164       1.39234877       0.00000000
Si      -1.54028303       1.24628274      -1.58843960       0.00000000
Si       1.40612022       1.79967033       1.66264923       0.00000000
Si       2.54255949      -2.80908018      -0.21417552       0.00000000
Si      -2.69216848      -2.66639607      -0.26063450       0.00000000
Si       2.66883957       2.81134449      -0.17135428       0.00000000
Si       2.51367732      -0.10982718      -2.98397571       0.00000000
Si      -2.79029129       2.78192475      -0.22446510       0.00000000
Si      -0.19938960       2.60177364      -2.97947186       0.00000000
