10
Lattice="16.28999089631971 0.0 0.0 0.0 16.28999089631971 0.0 0.0 0.0 34.64500226677339" Properties=species:S:1:pos:R:3:initial_magmoms:R:1 pbc="T T T"
Si      -2.21608508       0.23263749      -0.72879267       0.00000000
Si       0.91136034       2.12882607       0.49320653       0.00000000
Si      -0.27723951      -1.06230348       2.15744943       0.00000000
Si       1.73998377      -0.75026853      -1.51429925       0.00000000
Si       2.47197492       1.28879964       2.05784499       0.00000000
Si       1.02602565      -2.99812563       1.85887864       0.00000000
Si       0.95210163       0.34661862       3.55544534       0.00000000
Si      -2.11867740       1.19006595      -2.89098847       0.00000000
Si      -3.20662460      -1.87774830      -1.12232548       0.00000000
Si       2.51087544       2.81049741      -1.04530959       0.00000000
