10
Lattice="16.28999089631971 0.0 0.0 0.0 16.28999089631971 0.0 0.0 0.0 34.64500226677339" Properties=species:S:1:pos:R:3:initial_magmoms:R:1 pbc="T T T"
Si      -1.55377508      -0.98290602       1.47639760       0.00000000
Si       1.39827984      -1.36790388      -1.37124996       0.00000000
Si       0.94192038       1.78864200       1.29354117       0.00000000
Si      -1.25387618       1.06629453      -1.77146925       0.00000000
Si      -0.42525275       3.23196858      -1.55337883       0.00000000
Si       2.91055548       2.25342828       0.12901806       0.00000000
Si      -1.95727838       0.91491156       3.00729181       0.00000000
Si      -3.06302729      -2.12651289      -0.04684007       0.00000000
Si      -0.44541977       3.67745121       0.74199243       0.00000000
Si       1.49568753      -0.41047542      -3.53344576       0.00000000
