10
Lattice="16.28999089631971 0.0 0.0 0.0 16.28999089631971 0.0 0.0 0.0 34.64500226677339" Properties=species:S:1:pos:R:3:initial_magmoms:R:1 pbc="T T T"
Si       2.41401510       0.02676447       0.25869438       0.00000000
Si      -0.59225553       1.22083776      -2.07301951       0.00000000
Si      -0.74691279       1.12581819       2.11753837       0.00000000
Si      -0.80598033      -2.41856001       0.44730187       0.00000000
Si      -2.94079786      -2.03172138      -0.37042457       0.00000000
Si       1.11371472       0.29400192      -3.51712795       0.00000000
Si       3.05626464      -1.88333577      -1.17931654       0.00000000
Si      -0.02541240       3.51780921      -1.67778911       0.00000000
Si      -1.74220898      -0.63083025       3.46466296       0.00000000
Si      -4.00739606       0.06856461      -0.77348475       0.00000000
