10
Lattice="16.28999089631971 0.0 0.0 0.0 16.28999089631971 0.0 0.0 0.0 34.64500226677339" Properties=species:S:1:pos:R:3:initial_magmoms:R:1 pbc="T T T"
Si       1.36762695       1.34016201       1.35843823       0.00000000
Si       1.35435060      -1.22828229      -1.47817489       0.00000000
Si      -1.34840312      -1.37187864       1.36127912       0.00000000
Si      -1.28351028       1.37243250      -1.47749584       0.00000000
Si       0.50995845       2.39093217      -2.61509562       0.00000000
Si      -0.31428297      -2.17422630      -2.89598571       0.00000000
Si      -2.01071380      -0.30944484      -3.02680531       0.00000000
Si       2.23239789       0.67640967      -2.81190225       0.00000000
Si      -2.69829908       2.70259245      -0.02658313       0.00000000
Si      -2.70110530      -0.01278765       2.71908681       0.00000000
