10
Lattice="16.28999089631971 0.0 0.0 0.0 16.28999089631971 0.0 0.0 0.0 34.64500226677339" Properties=species:S:1:pos:R:3:initial_magmoms:R:1 pbc="T T T"
Si       1.35500233       1.35594702       1.35662976       0.00000000
Si       1.35270218      -1.35909099      -1.35780769       0.00000000
Si      -1.36043871      -1.35848826       1.35642189       0.00000000
Si      -1.36275189       1.35379674      -1.36456347       0.00000000
Si       2.70110530       0.01278765      -2.71908681       0.00000000
Si       2.71153090      -0.00032580       2.71395241       0.00000000
Si       2.71148203      -2.71432125      -0.00058897       0.00000000
Si      -0.00326226       2.71412577       2.71398706       0.00000000
Si       2.71322506       2.71552671      -0.00114329       0.00000000
Si      -0.00367607      -2.71568961       2.71319022       0.00000000
