10
Lattice="16.28999089631971 0.0 0.0 0.0 16.28999089631971 0.0 0.0 0.0 34.64500226677339" Properties=species:S:1:pos:R:3:initial_magmoms:R:1 pbc="T T T"
Si       1.35508365      -1.35729909       1.35763446       0.00000000
Si       1.35622395       1.35721764      -1.35808485       0.00000000
Si      -1.35896067      -1.35736425      -1.35791162       0.00000000
Si      -1.36293543       1.35666378       1.36089109       0.00000000
Si      -2.71452487      -2.71238274       0.00051968       0.00000000
Si       2.71397916      -2.71366965      -0.00051968       0.00000000
Si       0.00188964      -2.69451261       2.73356150       0.00000000
Si       2.71379997      -0.00011403      -2.71558073       0.00000000
Si      -0.00087966       2.71432125      -2.71523428       0.00000000
Si      -0.00193851      -2.71487511      -2.71551144       0.00000000
