10
Lattice="16.28999089631971 0.0 0.0 0.0 16.28999089631971 0.0 0.0 0.0 34.64500226677339" Properties=species:S:1:pos:R:3:initial_magmoms:R:1 pbc="T T T"
Si      -1.35486352      -1.35582159       1.35704550       0.00000000
Si       1.35765184      -1.35733330      -1.35680298       0.00000000
Si      -1.35777943       1.35773892      -1.35697621       0.00000000
Si       1.35845656       1.35860229       1.35905491       0.00000000
Si       0.00107238      -2.71201392      -2.71485318       0.00000000
Si      -2.71411741       0.00039096      -2.71329416       0.00000000
Si       2.71476034       2.71484253       0.00055432       0.00000000
Si       2.71495582      -2.71469507       0.00003465       0.00000000
Si       0.00129018       2.71593396      -2.71377919       0.00000000
Si      -2.71512739      -2.71483315      -0.00006929       0.00000000
