10
Lattice="16.28999089631971 0.0 0.0 0.0 16.28999089631971 0.0 0.0 0.0 34.64500226677339" Properties=species:S:1:pos:R:3:initial_magmoms:R:1 pbc="T T T"
Si       2.17455210      -0.81914265       0.18199030       0.00000000
Si      -1.79365022      -0.92629827       1.22348894       0.00000000
Si      -0.49059453       0.22970529      -2.31120404       0.00000000
Si       0.28377180       2.31309855       0.70544193       0.00000000
Si      -3.38979329      -0.64402515      -0.59745340       0.00000000
Si       3.41747910       1.06963398      -0.50082843       0.00000000
Si       2.60552034      -0.98360649       2.47708440       0.00000000
Si      -1.53137256       0.04474863       3.45826606       0.00000000
Si       1.47804057       0.69449157      -3.47572715       0.00000000
Si       0.85841784       3.69825354      -1.12918519       0.00000000
