10
Lattice="16.28999089631971 0.0 0.0 0.0 16.28999089631971 0.0 0.0 0.0 34.64500226677339" Properties=species:S:1:pos:R:3:initial_magmoms:R:1 pbc="T T T"
Si      -1.35683320      -1.35572699       1.35704550       0.00000000
Si      -1.35730398       1.35736177      -1.35683763       0.00000000
Si       1.35783666      -1.35812162      -1.35711479       0.00000000
Si       1.36010097       1.35875620       1.35659511       0.00000000
Si      -2.71388344       0.00268116      -2.71488783       0.00000000
Si       0.00144981      -2.71395461      -2.71488783       0.00000000
Si       0.00066789       2.71169771       2.71765943       0.00000000
Si       2.71593396      -0.00194998       2.71343274       0.00000000
Si       2.71495656       2.71453217       0.00020787       0.00000000
Si      -2.71495582       2.71469507      -0.00003465       0.00000000
