10
Lattice="16.28999089631971 0.0 0.0 0.0 16.28999089631971 0.0 0.0 0.0 34.64500226677339" Properties=species:S:1:pos:R:3:initial_magmoms:R:1 pbc="T T T"
Si       1.66863357       0.94594401       1.41781083       0.00000000
Si      -0.99529619      -1.75664844       1.34712459       0.00000000
Si       0.74691279      -1.12581819      -2.11753837       0.00000000
Si      -1.69643083       1.86478146      -0.13081960       0.00000000
Si       0.31428297       2.17422630       2.89598571       0.00000000
Si      -2.38531931      -0.54729513       2.87331055       0.00000000
Si       2.54668086       2.85063597       0.08408347       0.00000000
Si       3.16092789      -1.09905372      -1.85884399       0.00000000
Si      -3.58294382       0.78472188       1.23537014       0.00000000
Si      -0.05906754      -3.54437820      -1.67023649       0.00000000
