10
Lattice="16.28999089631971 0.0 0.0 0.0 16.28999089631971 0.0 0.0 0.0 34.64500226677339" Properties=species:S:1:pos:R:3:initial_magmoms:R:1 pbc="T T T"
Si      -1.62170601      -0.70742583      -1.66659877       0.00000000
Si       2.02343303      -0.79501716      -1.22418184       0.00000000
Si      -0.22302150       2.59763598      -0.63071262       0.00000000
Si      -0.39449819      -1.32222672       2.44032603       0.00000000
Si      -3.47280387       0.57508587      -0.69847828       0.00000000
Si      -2.59575027       2.48844411       0.41937799       0.00000000
Si      -0.97433276      -2.99046933      -2.08233902       0.00000000
Si       1.45658990      -3.09198861      -1.61941225       0.00000000
Si       2.12617406       1.37815029       2.85203573       0.00000000
Si      -0.98991691       0.18728613      -3.72835865       0.00000000
