10
Lattice="16.28999089631971 0.0 0.0 0.0 16.28999089631971 0.0 0.0 0.0 34.64500226677339" Properties=species:S:1:pos:R:3:initial_magmoms:R:1 pbc="T T T"
Si       1.79346873       1.01849967      -1.13759977       0.00000000
Si       1.28351028      -1.37243250       1.47749584       0.00000000
Si      -0.72720352      -1.68187734      -1.54930947       0.00000000
Si      -1.41478880       1.33015995       1.45091272       0.00000000
Si       2.63786088      -2.60071479      -0.00067904       0.00000000
Si      -2.61371651      -2.76193692      -0.18311973       0.00000000
Si       3.51590817      -0.69602283      -1.33440640       0.00000000
Si       2.65113723      -0.03227049       2.83593407       0.00000000
Si       2.70984639       2.77961157       0.05893118       0.00000000
Si      -0.06138398       2.68408701       2.83492937       0.00000000
