10
Lattice="16.28999089631971 0.0 0.0 0.0 16.28999089631971 0.0 0.0 0.0 34.64500226677339" Properties=species:S:1:pos:R:3:initial_magmoms:R:1 pbc="T T T"
Si       1.35041494       1.35290079      -1.35777304       0.00000000
Si       1.42046194      -1.22318352       1.41483339       0.00000000
Si      -1.36219663      -1.35923760      -1.36168793       0.00000000
Si      -1.16806630       1.44594927       1.48097074       0.00000000
Si      -0.71970197      -0.28566144       3.41859751       0.00000000
Si       2.38145791       0.47456028       2.78681089       0.00000000
Si       0.03247574      -2.44097505       2.86663302       0.00000000
Si       0.77576890       2.38811400       2.88461379       0.00000000
Si       2.71524001      -2.69827560       0.01489736       0.00000000
Si      -2.70640498       2.71231758       0.01489736       0.00000000
