10
Lattice="16.28999089631971 0.0 0.0 0.0 16.28999089631971 0.0 0.0 0.0 34.64500226677339" Properties=species:S:1:pos:R:3:initial_magmoms:R:1 pbc="T T T"
Si       0.73666638       1.77954959      -1.44868158       0.00000000
Si       1.60568901      -1.91355372      -0.09780290       0.00000000
Si      -1.94383520      -0.94216473      -1.40364305       0.00000000
Si       0.39425058       0.62402103       2.54561225       0.00000000
Si      -1.49547087      -2.67377544       0.53398372       0.00000000
Si       1.96462287       0.32680998      -2.86691018       0.00000000
Si       0.08808003      -1.59666435       3.13159815       0.00000000
Si       3.39004674      -0.99683397      -1.38306391       0.00000000
Si      -0.77576890      -2.38811400      -2.88461379       0.00000000
Si       1.75177773       3.43926602      -0.03949532       0.00000000
