10
Lattice="16.28999089631971 0.0 0.0 0.0 16.28999089631971 0.0 0.0 0.0 34.61538196595647" Properties=species:S:1:pos:R:3:initial_magmoms:R:1 pbc="T T T"
Si      -1.54563660      -1.60541208       0.61560030       0.00000000
Si      -0.87699170       2.04650360      -0.73536959       0.00000000
Si       1.10380877       0.17185950       2.13234334       0.00000000
Si       0.96171110      -0.61449138      -2.15702412       0.00000000
Si       1.17750473       3.09668732      -1.12527747       0.00000000
Si       2.72603213      -1.50091173       1.78975471       0.00000000
Si       2.25697787       1.34147728      -2.45340118       0.00000000
Si      -0.15320419      -3.60759969       0.44657329       0.00000000
Si      -2.18296656      -0.98973153       2.82316290       0.00000000
Si      -3.40316901      -1.37225331      -0.84139656       0.00000000
