10
Lattice="16.28999089631971 0.0 0.0 0.0 16.28999089631971 0.0 0.0 0.0 34.61538196595647" Properties=species:S:1:pos:R:3:initial_magmoms:R:1 pbc="T T T"
Si      -2.01743409      -0.30835341      -1.19340058       0.00000000
Si      -0.59402462       1.80957695       1.46942379       0.00000000
Si       1.26934123       0.85323762      -1.88422014       0.00000000
Si       0.90915305      -1.95147684       1.16248902       0.00000000
Si      -2.96631030       1.57302334       1.63093925       0.00000000
Si       2.89156460      -0.81953361      -2.22680877       0.00000000
Si      -0.29010046       3.72919544       0.08494619       0.00000000
Si       1.61011174       3.15481004      -1.24020060       0.00000000
Si      -3.24377787       1.75199832      -0.70390419       0.00000000
Si      -1.38010413      -0.92403396      -3.40096318       0.00000000
