10
Lattice="16.28999089631971 0.0 0.0 0.0 16.28999089631971 0.0 0.0 0.0 34.61538196595647" Properties=species:S:1:pos:R:3:initial_magmoms:R:1 pbc="T T T"
Si       0.66982851      -1.94456988      -1.21029289       0.00000000
Si       2.26905039       0.68072652       0.45387714       0.00000000
Si      -1.25253647      -0.99090441       1.81993934       0.00000000
Si      -0.90915305       1.95147684      -1.16248902       0.00000000
Si       2.08964862      -2.88686493       0.47011177       0.00000000
Si       1.14968304      -1.23123078      -3.41754396       0.00000000
Si       3.41707185      -1.15735563       1.30745832       0.00000000
Si      -2.39533766      -2.90931255       0.95884662       0.00000000
Si      -2.89635290       0.53571294       2.57912432       0.00000000
Si       3.40640190       1.22414463      -1.55776229       0.00000000
