10
Lattice="16.28999089631971 0.0 0.0 0.0 16.28999089631971 0.0 0.0 0.0 34.61538196595647" Properties=species:S:1:pos:R:3:initial_magmoms:R:1 pbc="T T T"
Si       0.78913647       1.74641832       1.42531480       0.00000000
Si       0.06170652       0.19346004      -2.43432810       0.00000000
Si      -1.80898169      -0.97399539       1.35087785       0.00000000
Si       1.63766628      -1.92795408      -0.03046155       0.00000000
Si      -2.63915430       1.07430921      -1.12115823       0.00000000
Si       2.13659640       0.51241824       2.87053204       0.00000000
Si       3.30748902      -0.86768685       1.33695899       0.00000000
Si      -0.57427137      -2.22078312       2.88186166       0.00000000
Si       0.51973245       2.42572761      -3.05460147       0.00000000
Si      -2.63671569      -2.92731300       0.12755775       0.00000000
