10
Lattice="16.28999089631971 0.0 0.0 0.0 16.28999089631971 0.0 0.0 0.0 34.61538196595647" Properties=species:S:1:pos:R:3:initial_magmoms:R:1 pbc="T T T"
Si      -0.45802593      -2.23226757       0.62027338       0.00000000
Si       0.99945666       0.23789916      -2.15775104       0.00000000
Si       2.00559222       0.52253433       1.27765446       0.00000000
Si      -2.06667972       1.31913392      -0.06923080       0.00000000
Si       1.62054549      -3.17977542      -0.50881178       0.00000000
Si       0.19391616       2.36587230      -2.81585905       0.00000000
Si       1.16004348       1.16920565       3.38234948       0.00000000
Si      -2.02675293       2.43361916      -2.10236640       0.00000000
Si       2.73750192       2.69018666       0.49309639       0.00000000
Si       3.39257169      -0.13501152      -1.87702014       0.00000000
