10
Lattice="16.28999089631971 0.0 0.0 0.0 16.28999089631971 0.0 0.0 0.0 34.61538196595647" Properties=species:S:1:pos:R:3:initial_magmoms:R:1 pbc="T T T"
Si       1.35337320       1.34627402      -1.36301604       0.00000000
Si       1.32866127      -1.21145195       1.50732765       0.00000000
Si      -1.35874890      -1.36904811      -1.36325835       0.00000000
Si      -1.50793272       1.21781108       1.39119298       0.00000000
Si      -0.44937594      -2.19526062       2.85262061       0.00000000
Si      -2.35260180      -0.61508922       2.78460134       0.00000000
Si       2.41398252       0.54555536       2.76154749       0.00000000
Si       0.00061902       2.70223733      -2.72336670       0.00000000
Si      -2.73426021       2.70127622       0.00733847       0.00000000
Si      -2.71464705      -0.01397682      -2.72381670       0.00000000
