10
Lattice="16.28999089631971 0.0 0.0 0.0 16.28999089631971 0.0 0.0 0.0 34.61538196595647" Properties=species:S:1:pos:R:3:initial_magmoms:R:1 pbc="T T T"
Si      -0.75943980       1.25439516       1.77937009       0.00000000
Si      -0.07434756       1.08577737      -2.06228176       0.00000000
Si      -1.89987012      -1.42144911      -0.21402703       0.00000000
Si       2.11825386      -1.00090647       0.72938112       0.00000000
Si       2.27968776       1.05145434      -2.01852790       0.00000000
Si       0.18536391      -0.26378397       3.38985163       0.00000000
Si       2.40974712       0.15781752       2.77792057       0.00000000
Si       1.39737249      -3.04911887       1.54862382       0.00000000
Si      -1.44526509      -2.40221951      -2.43391271       0.00000000
Si      -2.40808554      -2.03562609       2.13414334       0.00000000
