10
Lattice="16.28999089631971 0.0 0.0 0.0 16.28999089631971 0.0 0.0 0.0 34.61538196595647" Properties=species:S:1:pos:R:3:initial_magmoms:R:1 pbc="T T T"
Si      -1.35329175       1.35316143       1.35927758       0.00000000
Si       1.35275418      -1.35596331       1.36035066       0.00000000
Si       1.35729909       1.35671265      -1.35740835       0.00000000
Si      -1.35739683      -1.35780408      -1.35702758       0.00000000
Si      -0.00061902      -2.70223733       2.72336670       0.00000000
Si       0.00009774       2.71410948      -2.71433208       0.00000000
Si       2.71363707       0.00019548      -2.71488592       0.00000000
Si      -2.71467963       2.71467963       0.00135000       0.00000000
Si      -2.71511946      -0.00034209      -2.71453977       0.00000000
Si      -0.00016290      -2.71537521      -2.71471285       0.00000000
