10
Lattice="16.28999089631971 0.0 0.0 0.0 16.28999089631971 0.0 0.0 0.0 34.61538196595647" Properties=species:S:1:pos:R:3:initial_magmoms:R:1 pbc="T T T"
Si      -1.34565174      -1.35666378      -1.36910835       0.00000000
Si       1.36313091       1.35998694      -1.36727374       0.00000000
Si      -1.34669430       1.24629903       1.49521226       0.00000000
Si       1.56305808      -1.12853862       1.37575451       0.00000000
Si       0.51044715       2.20939641       2.61079741       0.00000000
Si       2.45531025       0.72811413       2.65749359       0.00000000
Si      -2.39200731      -0.38419965       2.92531295       0.00000000
Si      -2.69925300       2.71787247       0.01592308       0.00000000
Si      -2.70703962       0.00485442      -2.72703593       0.00000000
Si      -2.72723922      -2.71078632       0.00231923       0.00000000
