10
Lattice="16.28999089631971 0.0 0.0 0.0 16.28999089631971 0.0 0.0 0.0 34.61538196595647" Properties=species:S:1:pos:R:3:initial_magmoms:R:1 pbc="T T T"
Si       1.32598971       1.35176049      -1.38702875       0.00000000
Si      -1.36151820       1.35355239       1.36035066       0.00000000
Si       1.35254241      -1.36251189       1.36041989       0.00000000
Si      -1.36225125      -1.36593279      -1.36634604       0.00000000
Si       2.70995553      -2.71472850       0.00207692       0.00000000
Si       2.71228500       2.71261080      -0.00238846       0.00000000
Si       2.71148679      -0.00338832       2.71737823       0.00000000
Si      -0.00361638       2.71178001       2.71723977       0.00000000
Si      -2.72020194       2.71006956      -0.00027692       0.00000000
Si      -0.00316026      -2.71875213       2.71786285       0.00000000
