10
Lattice="16.28999089631971 0.0 0.0 0.0 16.28999089631971 0.0 0.0 0.0 34.61538196595647" Properties=species:S:1:pos:R:3:initial_magmoms:R:1 pbc="T T T"
Si       1.33252200       1.36796904       1.37277759       0.00000000
Si       1.35860229      -1.35731538      -1.36166604       0.00000000
Si      -1.36001952       1.35653346      -1.36121604       0.00000000
Si      -1.34917038      -1.35977517       1.38295451       0.00000000
Si      -2.71417464       2.71528236      -0.00214615       0.00000000
Si       2.71378368       2.71643895       0.00550385       0.00000000
Si       2.71321353      -2.71766070      -0.00024231       0.00000000
Si      -2.71686249      -2.71497285       0.00141923       0.00000000
Si      -0.00040725       2.71461447      -2.71838208       0.00000000
Si       2.71520091      -0.00037467      -2.71893593       0.00000000
