10
Lattice="16.28999089631971 0.0 0.0 0.0 16.28999089631971 0.0 0.0 0.0 34.61538196595647" Properties=species:S:1:pos:R:3:initial_magmoms:R:1 pbc="T T T"
Si      -0.73003635       0.52400043       2.15975873       0.00000000
Si      -1.85714145      -0.96309738      -1.11558515       0.00000000
Si       0.82394820       1.88669151      -1.22292751       0.00000000
Si       1.94486310      -1.48128228       0.04669618       0.00000000
Si      -2.88207567       1.24240572       1.39818529       0.00000000
Si      -0.51044715      -2.20939641      -2.61079741       0.00000000
Si       1.03330728       1.93728825       2.68310899       0.00000000
Si       2.21786721       0.53372556      -2.62502434       0.00000000
Si       1.05261093      -3.33793503      -1.23504290       0.00000000
Si      -2.90245446      -2.59359606       0.31451554       0.00000000
