10
Lattice="16.28999089631971 0.0 0.0 0.0 16.28999089631971 0.0 0.0 0.0 34.61538196595647" Properties=species:S:1:pos:R:3:initial_magmoms:R:1 pbc="T T T"
Si       0.92059677       1.16351325       1.76067777       0.00000000
Si      -2.34501066       0.34738425       0.22243857       0.00000000
Si       0.83253303       0.46933119      -2.21715107       0.00000000
Si       0.67059414      -2.24370315       0.64786185       0.00000000
Si       3.18125781       0.98056026       1.14196209       0.00000000
Si      -0.56485575      -3.53372454      -0.87050811       0.00000000
Si      -0.23213250      -1.16473500      -3.51796324       0.00000000
Si      -3.15175662      -1.53507186       1.52248920       0.00000000
Si       2.95613001      -0.51953697      -2.46382042       0.00000000
Si      -3.56957883       0.20111634      -1.78733163       0.00000000
