10
Lattice="16.28999089631971 0.0 0.0 0.0 16.28999089631971 0.0 0.0 0.0 34.61538196595647" Properties=species:S:1:pos:R:3:initial_magmoms:R:1 pbc="T T T"
Si       2.07344007      -0.50713376       0.97881970       0.00000000
Si      -1.29526677      -1.95596866       0.29637707       0.00000000
Si      -1.07947314       1.75521003       1.32812372       0.00000000
Si       0.50821542       0.61417698      -2.34817036       0.00000000
Si       2.59344945       1.77184212       1.25570830       0.00000000
Si      -1.72980252       1.55880150      -2.62035126       0.00000000
Si      -2.25697787      -1.34147728       2.45340118       0.00000000
Si      -3.13396957       0.70502631       1.71803160       0.00000000
Si       0.48365010      -3.55514167       0.67974264       0.00000000
Si      -0.68277906       3.61471353      -0.05998849       0.00000000
