10
Lattice="16.28999089631971 0.0 0.0 0.0 16.28999089631971 0.0 0.0 0.0 34.61538196595647" Properties=species:S:1:pos:R:3:initial_magmoms:R:1 pbc="T T T"
Si      -1.35539316      -1.35668007      -1.35778912       0.00000000
Si      -1.35415512       1.35874890       1.35906989       0.00000000
Si       1.35961227       1.35808101      -1.35716604       0.00000000
Si       1.36001952      -1.35653346       1.36121604       0.00000000
Si      -2.71355725      -2.71305063      -0.00010385       0.00000000
Si       2.69254152       0.01143558       2.73399363       0.00000000
Si      -2.71219703       0.00021177      -2.71481669       0.00000000
Si      -2.71199830       2.71575477      -0.00076154       0.00000000
Si       0.00219915      -2.71419093      -2.71447054       0.00000000
Si       0.00252495       2.71513575      -2.71457439       0.00000000
