10
Lattice="16.28999089631971 0.0 0.0 0.0 16.28999089631971 0.0 0.0 0.0 34.61538196595647" Properties=species:S:1:pos:R:3:initial_magmoms:R:1 pbc="T T T"
Si       0.38421594       1.62359337       1.68791620       0.00000000
Si      -0.55519578       0.69032133      -2.22660107       0.00000000
Si      -1.53940500      -1.49939676       1.13372362       0.00000000
Si       2.11076046      -1.54223946      -0.02970001       0.00000000
Si       0.42187842      -2.54089791       2.10084332       0.00000000
Si       2.35546884       0.99685026       2.89938601       0.00000000
Si       1.10509731       3.67180577       0.86867350       0.00000000
Si      -2.45842164       2.27049273      -2.29462034       0.00000000
Si      -3.21372378      -2.46703905      -0.22863473       0.00000000
Si      -1.56227616      -1.12884813      -3.60235558       0.00000000
