10
Lattice="16.28999089631971 0.0 0.0 0.0 16.28999089631971 0.0 0.0 0.0 34.61538196595647" Properties=species:S:1:pos:R:3:initial_magmoms:R:1 pbc="T T T"
Si      -1.27330785       1.29541338      -1.47960071       0.00000000
Si      -1.97949564      -0.70889193       1.13940055       0.00000000
Si       1.43187471      -1.41788160      -1.46610071       0.00000000
Si       1.00708038       1.81916946       1.37575451       0.00000000
Si      -2.74201425       2.52030735       0.03253848       0.00000000
Si      -0.89614548       3.39934086       1.30773525       0.00000000
Si      -2.60429859      -2.72036484      -0.02305386       0.00000000
Si      -2.61482193      -0.07056828      -2.84102445       0.00000000
Si       0.09770742       2.64538197      -2.84012445       0.00000000
Si       2.78383068      -2.76741036      -0.08397696       0.00000000
