10
Lattice="16.28999089631971 0.0 0.0 0.0 16.28999089631971 0.0 0.0 0.0 34.61538196595647" Properties=species:S:1:pos:R:3:initial_magmoms:R:1 pbc="T T T"
Si       0.55519578      -0.69032133       2.22660107       0.00000000
Si       1.77803721       0.98380867      -1.34529296       0.00000000
Si      -1.90322586       1.58017140      -0.06801926       0.00000000
Si      -1.00708038      -1.81916946      -1.37575451       0.00000000
Si       0.44937594       2.19526062      -2.85262061       0.00000000
Si      -2.28038823      -0.52375608      -2.85535522       0.00000000
Si      -1.05855678       3.41307170      -1.46142763       0.00000000
Si      -2.98657602      -2.52806139      -0.23635396       0.00000000
Si       2.86335846       2.74081598      -0.09107312       0.00000000
Si      -3.74909463       0.70113789      -1.34321603       0.00000000
