10
Lattice="16.28999089631971 0.0 0.0 0.0 16.28999089631971 0.0 0.0 0.0 34.61538196595647" Properties=species:S:1:pos:R:3:initial_magmoms:R:1 pbc="T T T"
Si      -1.96128342       1.04150115      -0.96711970       0.00000000
Si       1.30699557       1.36523232       1.53065843       0.00000000
Si      -0.20816991      -2.16313281       1.10523515       0.00000000
Si       1.00903518      -1.30476384      -1.88113937       0.00000000
Si       1.68888204       0.99865845      -2.13054334       0.00000000
Si      -0.42187842       2.54089791      -2.10084332       0.00000000
Si      -0.75430845      -2.71805166      -2.40448962       0.00000000
Si       3.40298100       0.34156872       1.46686225       0.00000000
Si       1.91542707      -3.15200097       0.85856580       0.00000000
Si      -3.35947041       1.62284238       0.85233503       0.00000000
