10
Lattice="16.28999089631971 0.0 0.0 0.0 16.28999089631971 0.0 0.0 0.0 34.61538196595647" Properties=species:S:1:pos:R:3:initial_magmoms:R:1 pbc="T T T"
Si      -1.35050616      -0.39442977       1.88778553       0.00000000
Si       0.25387965       1.94082548      -1.37655066       0.00000000
Si       2.09660445      -0.76712868       0.89010043       0.00000000
Si      -1.33591032      -1.10718243      -1.67562773       0.00000000
Si       0.07348419      -0.30222837       3.71932102       0.00000000
Si       3.33055566      -1.36479249      -0.99730433       0.00000000
Si      -3.11482719       0.49199058      -2.05899330       0.00000000
Si       1.56594141      -1.92410964       2.85203214       0.00000000
Si       1.98589761       1.43446647      -2.94088988       0.00000000
Si      -1.81956042       2.44795924      -2.35537037       0.00000000
