10
Lattice="16.28999089631971 0.0 0.0 0.0 16.28999089631971 0.0 0.0 0.0 34.61538196595647" Properties=species:S:1:pos:R:3:initial_magmoms:R:1 pbc="T T T"
Si      -1.42399035      -0.09220140      -1.83153550       0.00000000
Si       1.49245722      -1.62188127      -0.86728888       0.00000000
Si      -1.13735151      -0.54341811       2.01163943       0.00000000
Si       1.64758689       1.77369774       0.12330006       0.00000000
Si       2.02312026      -0.46490031      -2.82922060       0.00000000
Si       2.96124507       0.70434702       1.76767008       0.00000000
Si       3.17513277      -1.41534036       0.72636958       0.00000000
Si       0.01066995      -2.38150026       2.86522061       0.00000000
Si      -0.07348419       0.30222837      -3.71932102       0.00000000
Si      -3.04621371       1.58056983      -1.48894687       0.00000000
