10
Lattice="16.28999089631971 0.0 0.0 0.0 16.28999089631971 0.0 0.0 0.0 34.61538196595647" Properties=species:S:1:pos:R:3:initial_magmoms:R:1 pbc="T T T"
Si      -0.34645572      -1.17525834      -1.94317017       0.00000000
Si       0.57560715      -1.46131074       1.77349174       0.00000000
Si       1.75381398       1.51013187      -0.53318103       0.00000000
Si      -2.03973606       1.40105403      -0.20492318       0.00000000
Si       0.41332617       2.54035124      -2.17755105       0.00000000
Si       1.67322735       0.28644336       3.04451251       0.00000000
Si      -0.65275659       0.74350818      -3.35959777       0.00000000
Si       3.07309221       1.45313316       1.55284690       0.00000000
Si      -2.42478279      -2.30125572      -1.99138942       0.00000000
Si      -1.30782636       3.56870636      -0.98948125       0.00000000
