10
Lattice="16.28999089631971 0.0 0.0 0.0 16.28999089631971 0.0 0.0 0.0 34.61538196595647" Properties=species:S:1:pos:R:3:initial_magmoms:R:1 pbc="T T T"
Si       1.57429818       1.14114708      -1.24424164       0.00000000
Si      -1.23373944      -1.44646145      -1.38886479       0.00000000
Si       1.39178502      -1.22367941       1.50314957       0.00000000
Si      -1.30952052       1.48571316       1.48186110       0.00000000
Si      -2.63360430      -2.61315125       0.10280082       0.00000000
Si       2.31208857      -0.90203594      -2.77157699       0.00000000
Si       0.45708111      -2.52694457      -2.71307696       0.00000000
Si       2.70316260      -2.68236746       0.21601395       0.00000000
Si       0.04199562      -2.57548877       2.86849869       0.00000000
Si       2.73163752       2.74468581       0.11343467       0.00000000
