10
Lattice="16.28999089631971 0.0 0.0 0.0 16.28999089631971 0.0 0.0 0.0 34.61538196595647" Properties=species:S:1:pos:R:3:initial_magmoms:R:1 pbc="T T T"
Si      -1.77039720      -0.85502952       1.31507371       0.00000000
Si       1.24931268      -1.42853200      -1.42279684       0.00000000
Si      -1.44821358       1.31240385      -1.43546608       0.00000000
Si       2.03615226       0.91916325       1.85995474       0.00000000
Si       0.32198814       0.76611870       3.47787860       0.00000000
Si      -2.81202867       1.43799975       1.75351238       0.00000000
Si       2.65557951       2.73621501       0.24957704       0.00000000
Si       2.60183880      -0.05548374      -2.80644366       0.00000000
Si      -0.87944823      -1.31360768       3.48660168       0.00000000
Si      -0.11318292       2.65662207      -2.81257059       0.00000000
