10
Lattice="16.28999089631971 0.0 0.0 0.0 16.28999089631971 0.0 0.0 0.0 34.61538196595647" Properties=species:S:1:pos:R:3:initial_magmoms:R:1 pbc="T T T"
Si      -0.89094897       0.45857816      -2.17152797       0.00000000
Si       1.20143637       2.07972638      -0.00872308       0.00000000
Si      -2.09401434       0.69924662       1.01481972       0.00000000
Si       1.24838415      -1.54827558       1.85649320       0.00000000
Si      -2.81489571      -1.34896578       1.83406242       0.00000000
Si      -0.53256897       3.68160353       0.03724617       0.00000000
Si      -0.84364281      -1.97570889       3.04553224       0.00000000
Si       3.75375357       0.12440510      -0.14846546       0.00000000
Si      -1.93258044       2.75160743      -1.73308930       0.00000000
Si       0.87944823       1.31360768      -3.48660168       0.00000000
