10
Lattice="16.28999089631971 0.0 0.0 0.0 16.28999089631971 0.0 0.0 0.0 34.61538196595647" Properties=species:S:1:pos:R:3:initial_magmoms:R:1 pbc="T T T"
Si      -1.78650801       0.54638289       1.54581998       0.00000000
Si      -0.37478403      -2.36578760      -0.50853486       0.00000000
Si       2.20156092       0.17581797       1.10668900       0.00000000
Si       0.20593818       1.13749812      -2.22563184       0.00000000
Si       3.43318266      -1.43939580      -0.15594238       0.00000000
Si       1.06187994      -0.76702117      -3.49058245       0.00000000
Si       1.95041799      -0.70675305       3.31286698       0.00000000
Si       2.25362376       2.44439595      -2.10693563       0.00000000
Si      -1.20813156       2.53006506       2.77213980       0.00000000
Si      -0.15812703      -2.72656223      -2.92513987       0.00000000
