10
Lattice="16.28999089631971 0.0 0.0 0.0 16.28999089631971 0.0 0.0 0.0 34.61538196595647" Properties=species:S:1:pos:R:3:initial_magmoms:R:1 pbc="T T T"
Si      -1.72115253       1.02835512       1.18806980       0.00000000
Si       1.34048781      -1.03021937       1.64437002       0.00000000
Si       0.87045615       1.79923050      -1.32099294       0.00000000
Si      -1.06608276      -1.79684306      -1.18204672       0.00000000
Si      -2.45306223      -1.13929721       1.97262787       0.00000000
Si      -0.41332617      -2.54035124       2.17755105       0.00000000
Si       3.25311300      -1.44058076       0.39291942       0.00000000
Si      -2.89595475       2.07521568      -0.77265037       0.00000000
Si      -1.13919228       2.61493596      -2.37136268       0.00000000
Si       0.04326624      -1.78255673      -3.28129774       0.00000000
