10
Lattice="16.28999089631971 0.0 0.0 0.0 16.28999089631971 0.0 0.0 0.0 34.61538196595647" Properties=species:S:1:pos:R:3:initial_magmoms:R:1 pbc="T T T"
Si      -2.25969993       0.72213570       0.08103465       0.00000000
Si       0.80839125       1.77842817       1.36869297       0.00000000
Si       0.65860470       0.32135283      -2.27073571       0.00000000
Si       0.15574869      -2.34282780       0.79515038       0.00000000
Si      -2.54716956      -0.47131857       2.14490873       0.00000000
Si      -2.15453169      -2.64080448       1.31798140       0.00000000
Si       0.50295375      -3.52823481      -1.23822752       0.00000000
Si       3.09143475       1.87590753       1.13545439       0.00000000
Si      -3.49514982      -0.56788569      -1.43733531       0.00000000
Si       0.02583594       2.44630188      -3.03064762       0.00000000
