10
Lattice="16.28999089631971 0.0 0.0 0.0 16.28999089631971 0.0 0.0 0.0 34.61538196595647" Properties=species:S:1:pos:R:3:initial_magmoms:R:1 pbc="T T T"
Si       1.34954505       1.33418358      -1.35931219       0.00000000
Si       1.49102370      -1.19705436       1.37935451       0.00000000
Si      -1.36518345      -1.38313503      -1.35304681       0.00000000
Si      -1.39391901       1.35296595       1.40209683       0.00000000
Si      -0.27300411      -2.01500784       2.67172052       0.00000000
Si      -2.21786721      -0.53372556       2.62502434       0.00000000
Si       2.70094716       2.68820838       0.02156540       0.00000000
Si      -0.00376299       2.69060301      -2.71422823       0.00000000
Si       2.70858717      -0.02230101      -2.71471285       0.00000000
Si      -2.71979469      -0.02278971      -2.71447054       0.00000000
