10
Lattice="16.28999089631971 0.0 0.0 0.0 16.28999089631971 0.0 0.0 0.0 34.61538196595647" Properties=species:S:1:pos:R:3:initial_magmoms:R:1 pbc="T T T"
Si      -1.34954505      -1.33418358       1.35931219       0.00000000
Si      -1.35330804       1.35641943      -1.35491604       0.00000000
Si       1.35904212      -1.35648459      -1.35540065       0.00000000
Si       1.35140211       1.35402480       1.38087759       0.00000000
Si       0.14147865      -2.53123794       2.73866671       0.00000000
Si      -2.71274112      -0.00003258      -2.71242823       0.00000000
Si       0.00154755      -2.71466334      -2.71222054       0.00000000
Si       0.00197109       2.71521720      -2.71204746       0.00000000
Si       2.71731861      -0.00008145      -2.71211669       0.00000000
Si      -2.71415835       2.71678104       0.01201154       0.00000000
