10
Lattice="16.28999089631971 0.0 0.0 0.0 16.28999089631971 0.0 0.0 0.0 34.61538196595647" Properties=species:S:1:pos:R:3:initial_magmoms:R:1 pbc="T T T"
Si       1.23896853      -1.08693396       1.66628157       0.00000000
Si      -2.19789567       0.77498046      -0.26570782       0.00000000
Si       0.44338122      -0.57474378      -2.23387031       0.00000000
Si       1.46388456       1.88662635       0.21748857       0.00000000
Si      -0.11404629       1.59322716      -3.02742838       0.00000000
Si       3.35499066       0.73417401      -0.55100796       0.00000000
Si       0.01728369      -3.03756372       1.79647010       0.00000000
Si      -1.99472679       2.74712931       1.00775818       0.00000000
Si       0.83199546       3.21659082      -1.57247384       0.00000000
Si       2.72642472      -0.47726442      -2.46710888       0.00000000
