10
Lattice="16.28999089631971 0.0 0.0 0.0 16.28999089631971 0.0 0.0 0.0 34.61538196595647" Properties=species:S:1:pos:R:3:initial_magmoms:R:1 pbc="T T T"
Si      -1.30444928       1.41972237       1.32687064       0.00000000
Si       1.44513314      -1.31295771       1.31095102       0.00000000
Si       1.09330172       1.58659713      -1.39527902       0.00000000
Si      -0.83056357      -1.91622528      -1.37830189       0.00000000
Si       1.17758618       0.02914281      -3.16499141       0.00000000
Si      -0.60631543       3.40403985      -1.42625980       0.00000000
Si      -2.63089269       0.05869287       2.68326129       0.00000000
Si       0.08423396      -2.65763205       2.67938437       0.00000000
Si      -2.60909667       2.77221591      -0.16956700       0.00000000
Si      -2.65606074      -2.76714972      -0.07069503       0.00000000
