10
Lattice="16.28999089631971 0.0 0.0 0.0 16.28999089631971 0.0 0.0 0.0 34.61538196595647" Properties=species:S:1:pos:R:3:initial_magmoms:R:1 pbc="T T T"
Si      -1.35527913      -1.35879777       1.35713142       0.00000000
Si      -1.35718506       1.35721764      -1.35713142       0.00000000
Si       1.35751086      -1.35741312      -1.35737373       0.00000000
Si       1.35786924       1.35795069       1.35803142       0.00000000
Si      -0.00197109      -2.71521720       2.71204746       0.00000000
Si      -0.00008145       2.71343160      -2.71495516       0.00000000
Si       2.71450044       0.00078192      -2.71443592       0.00000000
Si       2.71494027       2.71473486       0.00041538       0.00000000
Si      -2.71568961      -0.00081450      -2.71402054       0.00000000
Si      -2.71471221      -2.71524978      -0.00038077       0.00000000
