10
Lattice="16.28999089631971 0.0 0.0 0.0 16.28999089631971 0.0 0.0 0.0 34.61538196595647" Properties=species:S:1:pos:R:3:initial_magmoms:R:1 pbc="T T T"
Si       0.14457375       1.32087206       1.95947402       0.00000000
Si      -0.62659485      -2.17251585       0.73211574       0.00000000
Si      -1.97125290       0.62674311      -1.21146982       0.00000000
Si       2.09202696       0.42743331      -1.18903904       0.00000000
Si      -1.86054606      -1.57485204       2.61952049       0.00000000
Si       1.46939058      -3.19617945       0.66831955       0.00000000
Si      -1.25037153       2.67495551      -2.03071252       0.00000000
Si       0.84364281       1.97570889      -3.04553224       0.00000000
Si      -0.71081415       0.15361470       3.77231720       0.00000000
Si      -2.35546884      -0.99685026      -2.89938601       0.00000000
