10
Lattice="16.28999089631971 0.0 0.0 0.0 16.28999089631971 0.0 0.0 0.0 34.61538196595647" Properties=species:S:1:pos:R:3:initial_magmoms:R:1 pbc="T T T"
Si      -2.09202696      -0.42743331       1.18903904       0.00000000
Si       1.87022232       0.62034016       1.47015071       0.00000000
Si       1.15795836      -1.81030770      -1.22856982       0.00000000
Si      -1.24838415       1.54827558      -1.85649320       0.00000000
Si       2.50536942       1.67268068      -2.00495866       0.00000000
Si      -0.26689536      -3.63407094      -0.51829640       0.00000000
Si       2.82243798       2.45909672       0.26449628       0.00000000
Si      -1.94745321       0.89343875       3.14851306       0.00000000
Si       3.28362417      -1.94066028      -0.08823466       0.00000000
Si       2.76110613      -1.50092802       2.17509336       0.00000000
