10
Lattice="16.28999089631971 0.0 0.0 0.0 16.28999089631971 0.0 0.0 0.0 34.61538196595647" Properties=species:S:1:pos:R:3:initial_magmoms:R:1 pbc="T T T"
Si       0.85538790       1.16725736      -1.81284318       0.00000000
Si      -1.14973191      -1.72846674      -1.15279671       0.00000000
Si      -1.52526528       0.51013131       1.79972394       0.00000000
Si       2.24396379      -0.25037730       0.93343891       0.00000000
Si      -1.68039495      -2.88544770       0.80913501       0.00000000
Si      -0.21160710      -0.55921941       3.44409397       0.00000000
Si       0.00228060      -2.67890679       2.40279347       0.00000000
Si      -3.17285217      -1.26356643       1.67642389       0.00000000
Si       0.08421930      -2.32613055      -3.04020147       0.00000000
Si       0.71081415      -0.15361470      -3.77231720       0.00000000
