10
Lattice="16.28999089631971 0.0 0.0 0.0 16.28999089631971 0.0 0.0 0.0 34.61538196595647" Properties=species:S:1:pos:R:3:initial_magmoms:R:1 pbc="T T T"
Si       2.23891389       0.66961674      -0.09405005       0.00000000
Si      -1.31365818       1.06935072      -1.64437002       0.00000000
Si       0.21388770      -2.11968738      -1.04130050       0.00000000
Si      -1.10934900      -0.01428633       2.09925101       0.00000000
Si       0.21160710       0.55921941      -3.44409397       0.00000000
Si      -2.96124507      -0.70434702      -1.76767008       0.00000000
Si       2.45557089       0.30884211      -2.51065506       0.00000000
Si       3.28390110      -0.81665028       1.53958920       0.00000000
Si      -0.04326624       1.78255673       3.28129774       0.00000000
Si      -0.75129480      -3.63014505       0.48458100       0.00000000
