10
Lattice="16.28999089631971 0.0 0.0 0.0 16.28999089631971 0.0 0.0 0.0 34.61538196595647" Properties=species:S:1:pos:R:3:initial_magmoms:R:1 pbc="T T T"
Si       1.35702216      -1.35684869       1.35771989       0.00000000
Si      -1.35799956      -1.35815194      -1.35765065       0.00000000
Si       1.35795069       1.35809241      -1.35820450       0.00000000
Si      -1.35848826       1.35906981       1.35740835       0.00000000
Si       0.00037467      -2.71420300      -2.71343208       0.00000000
Si       2.71407690      -2.71400752       0.00017308       0.00000000
Si      -0.00004887      -2.71363285       2.71533593       0.00000000
Si      -2.71437012       0.00142212       2.71485131       0.00000000
Si      -2.71510317      -2.71436590       0.00017308       0.00000000
Si       2.71552671       0.00090084       2.71408977       0.00000000
