10
Lattice="16.28999089631971 0.0 0.0 0.0 16.28999089631971 0.0 0.0 0.0 34.61538196595647" Properties=species:S:1:pos:R:3:initial_magmoms:R:1 pbc="T T T"
Si      -1.36347300      -1.34293594      -1.38561990       0.00000000
Si      -1.24931268       1.42853200       1.42279684       0.00000000
Si       1.35252612       1.37304826      -1.38364682       0.00000000
Si       1.38261375      -1.42831764       1.52241997       0.00000000
Si      -2.70821250      -2.69276373       0.01460770       0.00000000
Si       2.71647153      -2.69566335      -0.00626539       0.00000000
Si      -2.69752626       2.74093585      -0.01266924       0.00000000
Si      -0.00301365      -2.69950779      -2.74621286       0.00000000
Si       2.70415629       2.74214131       0.00792693       0.00000000
Si       2.71256193       0.01502590      -2.74745902       0.00000000
