10
Lattice="16.28999089631971 0.0 0.0 0.0 16.28999089631971 0.0 0.0 0.0 34.61538196595647" Properties=species:S:1:pos:R:3:initial_magmoms:R:1 pbc="T T T"
Si      -0.13984965       0.01252701       2.34041651       0.00000000
Si       1.49801767      -1.17908649      -1.38312759       0.00000000
Si      -0.03139083       2.03569614      -1.18741211       0.00000000
Si      -2.14558848      -0.98217297      -0.40738866       0.00000000
Si      -2.17013751       2.70888039      -0.55862335       0.00000000
Si      -1.03430097      -2.15496989       2.66490129       0.00000000
Si      -0.96682779      -0.63781866      -3.39975164       0.00000000
Si      -3.31447743       0.82016892      -1.32033525       0.00000000
Si      -1.91904345      -2.47657522      -2.19409721       0.00000000
Si      -3.12813612      -1.66157023       1.66510465       0.00000000
