10
Lattice="16.28999089631971 0.0 0.0 0.0 16.28999089631971 0.0 0.0 0.0 34.61538196595647" Properties=species:S:1:pos:R:3:initial_magmoms:R:1 pbc="T T T"
Si      -0.27746757       0.17897497      -2.33484343       0.00000000
Si       2.37228568       0.23655361      -0.16151546       0.00000000
Si      -1.23162174       1.61521377       1.26263138       0.00000000
Si      -0.54626886      -2.28852901       0.43206944       0.00000000
Si       0.94887621      -1.88137675      -2.82433982       0.00000000
Si       0.61698375       2.34647187      -2.65932821       0.00000000
Si      -3.43318266       1.43939580       0.15594238       0.00000000
Si       2.96631030      -1.57302334      -1.63093925       0.00000000
Si       2.67620984       2.15617209      -1.54599305       0.00000000
Si       0.97911045      -2.98878724       2.11067409       0.00000000
