10
Lattice="16.28999089631971 0.0 0.0 0.0 16.28999089631971 0.0 0.0 0.0 34.61538196595647" Properties=species:S:1:pos:R:3:initial_magmoms:R:1 pbc="T T T"
Si       1.35733167      -1.35695700      -1.35778912       0.00000000
Si      -1.35883035      -1.35602847       1.35723527       0.00000000
Si      -1.35786924       1.35822762      -1.35758142       0.00000000
Si       1.35822762       1.35887922       1.35771989       0.00000000
Si      -0.00094482       2.71414206      -2.71530131       0.00000000
Si       2.71476706      -2.71467963      -0.00051923       0.00000000
Si      -2.71575477      -2.71375110      -0.00031154       0.00000000
Si       2.71351352      -0.00047241      -2.71606285       0.00000000
Si       2.71499409       2.71531494      -0.00058846       0.00000000
Si       0.00068418      -2.71472850      -2.71592439       0.00000000
