10
Lattice="16.28999089631971 0.0 0.0 0.0 16.28999089631971 0.0 0.0 0.0 34.61538196595647" Properties=species:S:1:pos:R:3:initial_magmoms:R:1 pbc="T T T"
Si      -0.49441779       0.85310730       2.15858181       0.00000000
Si       2.14192323       0.52794261      -1.07349283       0.00000000
Si      -0.08920404      -2.44047006       0.39025403       0.00000000
Si      -2.15506926       0.68802444      -1.73897392       0.00000000
Si       0.30674070      -0.87605991       3.41726703       0.00000000
Si      -2.78980911       0.36600372       2.32061650       0.00000000
Si      -1.35933534      -3.05385372      -1.55357383       0.00000000
Si      -3.09334068      -1.45197657      -1.50760457       0.00000000
Si      -2.53974132       2.78153379      -0.66056570       0.00000000
Si       3.07815840       2.27312289       0.30894246       0.00000000
