10
Lattice="16.28999089631971 0.0 0.0 0.0 16.28999089631971 0.0 0.0 0.0 34.61538196595647" Properties=species:S:1:pos:R:3:initial_magmoms:R:1 pbc="T T T"
Si       0.93623517       1.74518028       1.38243528       0.00000000
Si      -2.14192323      -0.52794261       1.07349283       0.00000000
Si      -0.30625200       0.36214299      -2.43380887       0.00000000
Si       0.71970849      -2.82222621      -0.83956194       0.00000000
Si       2.59505143       2.56934025      -0.21897703       0.00000000
Si       3.17062763      -2.11033692      -0.27276936       0.00000000
Si      -2.01440511       2.18698137      -2.41854347       0.00000000
Si      -0.74658699       3.40408872       1.72485083       0.00000000
Si      -2.23112727      -2.96841267       1.46374686       0.00000000
Si      -2.63634102       0.32516469       3.23207464       0.00000000
