10
Lattice="16.28999089631971 0.0 0.0 0.0 16.28999089631971 0.0 0.0 0.0 34.61538196595647" Properties=species:S:1:pos:R:3:initial_magmoms:R:1 pbc="T T T"
Si      -1.27013130      -0.61338366      -1.94382786       0.00000000
Si       1.59925446      -1.78228890       0.18588471       0.00000000
Si      -0.74839518      -0.32430132       2.26530109       0.00000000
Si       0.08920404       2.44047006      -0.39025403       0.00000000
Si       0.39594474       1.56441015       3.02701300       0.00000000
Si       1.28218590      -2.56870494      -2.08357024       0.00000000
Si       2.53469142       0.89122590       2.39822423       0.00000000
Si       0.44403282      -0.46033911      -3.56175172       0.00000000
Si      -3.00413664       0.98849349      -1.89785861       0.00000000
Si       2.95083576       0.14618646      -2.30330880       0.00000000
