10
Lattice="16.28999089631971 0.0 0.0 0.0 16.28999089631971 0.0 0.0 0.0 34.61538196595647" Properties=species:S:1:pos:R:3:initial_magmoms:R:1 pbc="T T T"
Si      -0.31061772      -0.68129667      -2.17263566       0.00000000
Si      -0.97433748       2.11532166       0.13690391       0.00000000
Si      -0.07687251      -1.84033017       1.43473915       0.00000000
Si       2.18494512       0.86622075       0.21766164       0.00000000
Si       0.73472787      -0.51289065       3.23152079       0.00000000
Si       1.82812896      -1.35448092      -2.80142443       0.00000000
Si      -0.84673791       2.95738434      -2.07498562       0.00000000
Si       3.20302029       0.34326288      -1.88529322       0.00000000
Si      -1.11177621       1.04787054      -3.43132089       0.00000000
Si       2.85886242       0.14820642       2.44073195       0.00000000
