10
Lattice="16.28999089631971 0.0 0.0 0.0 16.28999089631971 0.0 0.0 0.0 34.61538196595647" Properties=species:S:1:pos:R:3:initial_magmoms:R:1 pbc="T T T"
Si       1.35390155      -1.35725022       1.35945066       0.00000000
Si       1.37914398       1.33022511      -1.36459104       0.00000000
Si      -1.36029645       1.35959598       1.35976219       0.00000000
Si      -1.35384561      -1.35576783      -1.38055567       0.00000000
Si      -0.05533713       2.60931591      -2.64902320       0.00000000
Si       2.71239807      -2.70889668      -0.00045000       0.00000000
Si       2.71306433       0.00068418       2.71672054       0.00000000
Si       2.71464446       2.71554300       0.00169615       0.00000000
Si      -0.00237834      -2.71383255       2.71665131       0.00000000
Si      -2.71650411       2.71619460       0.00346154       0.00000000
