10
Lattice="16.28999089631971 0.0 0.0 0.0 16.28999089631971 0.0 0.0 0.0 34.61538196595647" Properties=species:S:1:pos:R:3:initial_magmoms:R:1 pbc="T T T"
Si      -1.38116394      -1.32204753      -1.36199143       0.00000000
Si       1.35808101      -1.35643572       1.35886219       0.00000000
Si      -1.35518139       1.35918873       1.35948527       0.00000000
Si       1.36479249       1.36042677      -1.38100567       0.00000000
Si      -0.11842830      -2.61180828      -2.79960712       0.00000000
Si      -2.71513575      -2.70920619       0.00083077       0.00000000
Si       2.71694394      -2.71158453       0.00190385       0.00000000
Si       0.00115659      -2.71235016       2.71658208       0.00000000
Si      -2.71360449       0.00213399       2.71613208       0.00000000
Si      -2.71280628       2.71813311      -0.00363462       0.00000000
