10
Lattice="16.28999089631971 0.0 0.0 0.0 16.28999089631971 0.0 0.0 0.0 34.61538196595647" Properties=species:S:1:pos:R:3:initial_magmoms:R:1 pbc="T T T"
Si       1.35627989       1.35658233      -1.35720065       0.00000000
Si      -1.35707103       1.35734796       1.35747758       0.00000000
Si       1.35776016      -1.35762489       1.35737373       0.00000000
Si      -1.35817875      -1.35879777      -1.35733912       0.00000000
Si       0.00083079       2.71355562       2.71429746       0.00000000
Si       0.00068418      -2.71394658      -2.71429746       0.00000000
Si       2.71408246       0.00125433       2.71478208       0.00000000
Si      -2.71534752       0.00094482       2.71419362       0.00000000
Si       0.00099369      -2.71406061       2.71568208       0.00000000
Si      -2.71510317      -2.71471221       0.00038077       0.00000000
