10
Lattice="16.28999089631971 0.0 0.0 0.0 16.28999089631971 0.0 0.0 0.0 34.61538196595647" Properties=species:S:1:pos:R:3:initial_magmoms:R:1 pbc="T T T"
Si      -1.68282216       1.65890844       0.34241555       0.00000000
Si      -0.93623517      -1.74518028      -1.38243528       0.00000000
Si       1.08237506      -0.05870916       2.15972412       0.00000000
Si       1.65881626       0.82415997      -1.60141231       0.00000000
Si      -0.31345218       3.30421473      -0.67524263       0.00000000
Si       2.11149255       3.05473338      -0.79096192       0.00000000
Si      -3.07815840      -2.27312289      -0.30894246       0.00000000
Si       0.21014100       1.70430867       3.46739013       0.00000000
Si       3.26354579       0.93848319       1.92825093       0.00000000
Si      -1.90982331       2.25973251       2.65728590       0.00000000
