10
Lattice="16.28999089631971 0.0 0.0 0.0 16.28999089631971 0.0 0.0 0.0 34.61538196595647" Properties=species:S:1:pos:R:3:initial_magmoms:R:1 pbc="T T T"
Si      -1.43448111       1.27909080      -1.28443216       0.00000000
Si      -1.37914398      -1.33022511       1.36459104       0.00000000
Si       1.33550048       1.38531789       1.36628720       0.00000000
Si       1.47147311      -1.45933965      -1.51925612       0.00000000
Si      -0.02052540       2.41365672      -2.66944906       0.00000000
Si       2.67806690       2.72933900      -0.01978962       0.00000000
Si      -0.02524243      -2.68747533       2.72404170       0.00000000
Si       2.70618344      -2.70612738       0.01172770       0.00000000
Si       2.68973054       0.02881701       2.72362631       0.00000000
Si      -2.73298959      -2.68599294      -0.01596462       0.00000000
