10
Lattice="16.28999089631971 0.0 0.0 0.0 16.28999089631971 0.0 0.0 0.0 34.61538196595647" Properties=species:S:1:pos:R:3:initial_magmoms:R:1 pbc="T T T"
Si       0.76163895       1.83997179      -1.50767380       0.00000000
Si      -1.86727383      -0.79420266      -1.49057380       0.00000000
Si      -0.34339320       0.02463048       2.50722813       0.00000000
Si       1.75775616      -1.82830815      -0.04974233       0.00000000
Si       2.09549673       0.57262608      -3.03635916       0.00000000
Si      -0.63242667      -2.15036145      -3.04141301       0.00000000
Si       3.39568308      -0.86815926      -1.59850462       0.00000000
Si       0.77962311      -3.42391365      -1.60342000       0.00000000
Si      -3.48039108      -2.02945707      -0.16926931       0.00000000
Si       1.00401786       3.50761886       1.73083930       0.00000000
