10
Lattice="16.28999089631971 0.0 0.0 0.0 16.28999089631971 0.0 0.0 0.0 34.61538196595647" Properties=species:S:1:pos:R:3:initial_magmoms:R:1 pbc="T T T"
Si      -0.97813305      -1.59560550      -1.55367767       0.00000000
Si       1.63792692       0.96014889      -1.54876229       0.00000000
Si      -1.75775616       1.82830815       0.04974233       0.00000000
Si       0.81798606      -0.36755127       3.10759765       0.00000000
Si      -1.81920204      -3.22996491      -0.01813847       0.00000000
Si       3.21258089       2.00394693      -0.10661544       0.00000000
Si      -2.10114936       1.85293863       2.55697046       0.00000000
Si      -2.39018283      -0.32205330      -2.99167067       0.00000000
Si       0.33774057       2.40093423      -2.98661683       0.00000000
Si       2.78099526      -2.73266379      -0.18512317       0.00000000
