10
Lattice="16.28999089631971 0.0 0.0 0.0 16.28999089631971 0.0 0.0 0.0 34.61538196595647" Properties=species:S:1:pos:R:3:initial_magmoms:R:1 pbc="T T T"
Si       1.49789808       1.53223740      -0.98176201       0.00000000
Si      -1.88584443      -0.59044734      -1.29949678       0.00000000
Si       1.21751460      -2.04211440      -0.50226947       0.00000000
Si      -0.55221471       0.48964482       2.33055112       0.00000000
Si      -2.20284783      -2.72308527      -0.44283483       0.00000000
Si       3.35543049       1.29907863       0.47523484       0.00000000
Si      -0.18019998      -3.81234870       0.04641925       0.00000000
Si      -2.20222881      -0.96055614       3.15294383       0.00000000
Si       2.02041612       1.09250514      -3.24509003       0.00000000
Si      -1.53010341      -0.60090552      -3.67515177       0.00000000
