10
Lattice="16.28999089631971 0.0 0.0 0.0 16.28999089631971 0.0 0.0 0.0 34.61538196595647" Properties=species:S:1:pos:R:3:initial_magmoms:R:1 pbc="T T T"
Si       1.37635839      -1.09902114       1.53896613       0.00000000
Si      -1.49764233       1.30238550       1.33899295       0.00000000
Si      -0.75111561      -1.90127106      -1.29485832       0.00000000
Si       0.80674596       1.88245611      -1.30005063       0.00000000
Si       0.38977083      -1.59036012      -3.30272467       0.00000000
Si      -2.93914768      -1.32691824      -1.84240473       0.00000000
Si       2.25150606       0.61540362       2.91292064       0.00000000
Si      -0.41782221       1.73618820      -3.30982083       0.00000000
Si       3.15175662       1.53507186      -1.52248920       0.00000000
Si      -0.49418973       3.42661779       1.74987777       0.00000000
