10
Lattice="16.28999089631971 0.0 0.0 0.0 16.28999089631971 0.0 0.0 0.0 34.61538196595647" Properties=species:S:1:pos:R:3:initial_magmoms:R:1 pbc="T T T"
Si      -2.28470345      -0.34222032       0.40056942       0.00000000
Si       0.88342299       1.85357394      -1.16241979       0.00000000
Si       0.42396354       1.10094336       2.04881637       0.00000000
Si       0.60413094      -2.34354456      -0.42106174       0.00000000
Si       3.04194573       1.05050952      -1.51213919       0.00000000
Si      -2.10031205      -1.18110645       2.68788591       0.00000000
Si       0.13595634      -0.59197860       3.60142097       0.00000000
Si      -0.95599494      -2.85992127      -2.14390488       0.00000000
Si      -2.85620715      -2.28553587      -0.81875809       0.00000000
Si      -1.38691431       2.61456129       2.42148578       0.00000000
