10
Lattice="16.28999089631971 0.0 0.0 0.0 16.28999089631971 0.0 0.0 0.0 34.61538196595647" Properties=species:S:1:pos:R:3:initial_magmoms:R:1 pbc="T T T"
Si      -1.23471032       1.24678773      -1.53098382       0.00000000
Si      -1.37292934      -1.33299441       1.35241334       0.00000000
Si       1.34073216       1.37529954       1.35179027       0.00000000
Si       1.30175019      -1.41884271      -1.44409916       0.00000000
Si      -2.06244432      -0.70652988      -2.75430391       0.00000000
Si       2.21193765       0.29282904      -2.91232321       0.00000000
Si       0.57427137       2.22078312      -2.88186166       0.00000000
Si      -0.36282717      -2.52397260      -2.72332312       0.00000000
Si       2.69868285      -2.70070281      -0.01427885       0.00000000
Si      -0.01681128      -2.69721675       2.71241785       0.00000000
