10
Lattice="16.28999089631971 0.0 0.0 0.0 16.28999089631971 0.0 0.0 0.0 34.61538196595647" Properties=species:S:1:pos:R:3:initial_magmoms:R:1 pbc="T T T"
Si      -1.37587946       1.28270718      -1.45862378       0.00000000
Si       0.62480295       2.01147291       1.16245441       0.00000000
Si      -1.63581736      -1.12241358       1.36509297       0.00000000
Si       1.35448092      -1.42526097      -1.43286992       0.00000000
Si       1.68210540      -0.69133131       2.56018970       0.00000000
Si       2.60429859       2.72036484       0.02305386       0.00000000
Si      -2.77888571       2.57039910       0.00145385       0.00000000
Si       0.95285097       1.38217392       3.39677472       0.00000000
Si      -2.73965939      -2.68221366      -0.01713462       0.00000000
Si      -0.01052334       2.64979656      -2.81797059       0.00000000
