10
Lattice="16.28999089631971 0.0 0.0 0.0 16.28999089631971 0.0 0.0 0.0 34.61538196595647" Properties=species:S:1:pos:R:3:initial_magmoms:R:1 pbc="T T T"
Si       1.35680387      -1.35689184       1.35702758       0.00000000
Si       1.35581018       1.35835794      -1.35768527       0.00000000
Si      -1.35778906       1.35765747       1.35678527       0.00000000
Si      -1.35916278      -1.35793440      -1.35726989       0.00000000
Si      -0.00066626      -2.70958086      -2.71717054       0.00000000
Si       2.71219703      -0.00021177       2.71481669       0.00000000
Si      -0.00136022      -2.71326240       2.71471285       0.00000000
Si       2.71439618      -2.71440270       0.00034615       0.00000000
Si      -2.71461188      -0.00096111       2.71422823       0.00000000
Si       0.00019874       2.71554300       2.71405516       0.00000000
