10
Lattice="16.28999089631971 0.0 0.0 0.0 16.28999089631971 0.0 0.0 0.0 34.61538196595647" Properties=species:S:1:pos:R:3:initial_magmoms:R:1 pbc="T T T"
Si       1.35706098      -1.35469269      -1.36176989       0.00000000
Si      -1.35755416       1.36037857      -1.36156220       0.00000000
Si      -1.35364456      -1.35031068       1.37963143       0.00000000
Si       1.35141487       1.35220751       1.38236605       0.00000000
Si       2.71490416      -2.71169856      -0.00193846       0.00000000
Si      -2.71597726      -2.71259451      -0.00297692       0.00000000
Si      -0.00092681      -2.71257822      -2.71903977       0.00000000
Si       2.71420369       0.00243246      -2.71872823       0.00000000
Si      -2.71605871       0.00262905      -2.71793208       0.00000000
Si      -2.71758997       2.71840094       0.00225000       0.00000000
