10
Lattice="16.28999089631971 0.0 0.0 0.0 16.28999089631971 0.0 0.0 0.0 34.51007289658418" Properties=species:S:1:pos:R:3:initial_magmoms:R:1 pbc="T T T"
Si       0.62884287      -1.07996184       2.00068808       0.00000000
Si       1.87724331      -0.34292079      -1.40611371       0.00000000
Si      -2.05617267      -1.04277177      -0.59788735       0.00000000
Si      -0.09506844       2.31899553       0.74093168       0.00000000
Si       2.84716620      -0.18920835       2.13065309       0.00000000
Si      -2.91696885       0.66596778      -1.96817958       0.00000000
Si      -2.87725383      -1.37624436       1.70158912       0.00000000
Si      -2.34792657       2.89460268       0.72364212       0.00000000
Si       3.76018812      -0.56151630       0.01242363       0.00000000
Si       1.65025845      -2.50602102      -2.35079297       0.00000000
