10
Lattice="16.28999089631971 0.0 0.0 0.0 16.28999089631971 0.0 0.0 0.0 34.51007289658418" Properties=species:S:1:pos:R:3:initial_magmoms:R:1 pbc="T T T"
Si       0.17309754       1.97998434       1.22269257       0.00000000
Si       0.46584513      -1.51632207       1.73288977       0.00000000
Si      -2.07997236      -0.82622880      -0.75621965       0.00000000
Si       1.30943907       0.38328741      -1.93228908       0.00000000
Si      -1.36536264      -2.88020232      -1.68957960       0.00000000
Si      -1.67396040       3.17933559       0.35862888       0.00000000
Si      -0.04843017       2.07700758      -2.97118090       0.00000000
Si      -1.74042360      -2.01279240       2.51088529       0.00000000
Si       3.21038433       1.50799788      -1.05949434       0.00000000
Si       1.47631383      -3.36536739       0.59795637       0.00000000
