10
Lattice="16.28999089631971 0.0 0.0 0.0 16.28999089631971 0.0 0.0 0.0 34.51007289658418" Properties=species:S:1:pos:R:3:initial_magmoms:R:1 pbc="T T T"
Si       1.60937055      -1.35811359       1.06042611       0.00000000
Si       1.04451480      -0.75872304      -1.97780789       0.00000000
Si      -2.18922939      -0.90653850      -0.12961991       0.00000000
Si      -0.70395606       2.26690011       0.30310214       0.00000000
Si      -0.86240889      -0.34862229      -3.32815329       0.00000000
Si      -2.81388573       0.32239539      -2.06011446       0.00000000
Si       2.40383385       1.12405887      -2.30613691       0.00000000
Si      -2.58690087       2.48549562      -1.11543520       0.00000000
Si       0.85284666      -3.62554217       0.72916374       0.00000000
Si       2.39109507      -0.08506638       2.97445936       0.00000000
