10
Lattice="16.28999089631971 0.0 0.0 0.0 16.28999089631971 0.0 0.0 0.0 34.51007289658418" Properties=species:S:1:pos:R:3:initial_magmoms:R:1 pbc="T T T"
Si       1.26695475      -1.31202918      -1.63025675       0.00000000
Si      -0.88031160      -2.17513854       0.91258488       0.00000000
Si       1.98946512       0.80340651       1.33364251       0.00000000
Si      -1.41481908       1.36853919      -1.59540156       0.00000000
Si      -0.34915986       0.95169438       2.73585658       0.00000000
Si       2.58362658      -2.67038712      -0.30399940       0.00000000
Si      -2.86853868       2.63551023      -0.23332273       0.00000000
Si       2.81153997       2.70995553       0.04041132       0.00000000
Si       3.69895401      -0.99201213       0.94022746       0.00000000
Si      -2.82941010      -2.75765265      -0.34389307       0.00000000
