10
Lattice="16.28999089631971 0.0 0.0 0.0 16.28999089631971 0.0 0.0 0.0 34.51007289658418" Properties=species:S:1:pos:R:3:initial_magmoms:R:1 pbc="T T T"
Si      -0.77081022       0.67776174       2.10704819       0.00000000
Si       0.91261467      -2.18535237       0.22548894       0.00000000
Si       1.69661979       1.64714706      -0.26962735       0.00000000
Si      -1.93717422       0.44717679      -1.47603115       0.00000000
Si       2.31630768       1.86668739       2.04562022       0.00000000
Si      -2.19517524      -1.04251113       2.83472799       0.00000000
Si       0.96477525       0.60294177       3.61803806       0.00000000
Si      -3.64716810       1.07289198       0.04282702       0.00000000
Si       0.89518437       3.17192364      -1.98401971       0.00000000
Si      -1.16714592       2.41856001      -2.76194621       0.00000000
