10
Lattice="16.28999089631971 0.0 0.0 0.0 16.28999089631971 0.0 0.0 0.0 34.51007289658418" Properties=species:S:1:pos:R:3:initial_magmoms:R:1 pbc="T T T"
Si      -0.00956223      -1.71545266      -1.65479343       0.00000000
Si      -1.99201939       1.14878709      -0.66873657       0.00000000
Si      -0.61574571      -1.14403041       2.06560157       0.00000000
Si       1.80424782       1.67844015       0.03913444       0.00000000
Si       1.11198798      -0.72057186      -3.43071728       0.00000000
Si      -2.99122405      -1.79929729       1.36846320       0.00000000
Si      -1.53262347       3.42498879      -0.28595062       0.00000000
Si       0.74679876       3.59158662      -0.84377175       0.00000000
Si       1.58876370      -2.22613764       2.63218826       0.00000000
Si      -3.74667461       0.33710526       0.68309276       0.00000000
