10
Lattice="16.28999089631971 0.0 0.0 0.0 16.28999089631971 0.0 0.0 0.0 34.51007289658418" Properties=species:S:1:pos:R:3:initial_magmoms:R:1 pbc="T T T"
Si      -0.70698600       1.14388380      -1.92959729       0.00000000
Si      -1.40019066       0.42375177       1.94502331       0.00000000
Si       0.88829370      -2.28695310      -0.16492373       0.00000000
Si       2.26603674       0.86304420       0.47437573       0.00000000
Si       2.95062399      -1.53358947       0.61300277       0.00000000
Si      -1.63108512      -0.60313725      -3.13410304       0.00000000
Si      -0.20895183       2.43217845       2.82365025       0.00000000
Si      -2.92343598      -1.83358611      -1.52569118       0.00000000
Si       2.05943067       1.72372635       2.68826716       0.00000000
Si       1.11878091       2.12615451      -3.05410865       0.00000000
