10
Lattice="16.28999089631971 0.0 0.0 0.0 16.28999089631971 0.0 0.0 0.0 34.51007289658418" Properties=species:S:1:pos:R:3:initial_magmoms:R:1 pbc="T T T"
Si      -1.93212432       0.25262532      -1.30644856       0.00000000
Si      -0.36844722       0.11471418       2.33930111       0.00000000
Si       1.55126412       1.80237447      -0.36635914       0.00000000
Si       0.53656002      -2.34703062      -0.11502214       0.00000000
Si       2.27214549      -2.42185059       1.39596774       0.00000000
Si       1.62743616      -0.98878671       3.17955283       0.00000000
Si      -2.33979786      -1.95190038      -2.17924330       0.00000000
Si       3.62367792      -1.15810497      -0.17645010       0.00000000
Si       1.76072094       3.11181354       1.60226907       0.00000000
Si      -3.88977507       0.54863091      -0.03796110       0.00000000
