10
Lattice="16.28999089631971 0.0 0.0 0.0 16.28999089631971 0.0 0.0 0.0 34.51007289658418" Properties=species:S:1:pos:R:3:initial_magmoms:R:1 pbc="T T T"
Si       0.86156181       1.72278153       1.32258117       0.00000000
Si      -0.17130564       1.20896235      -2.02937516       0.00000000
Si      -1.83546923      -1.04791941       1.17928491       0.00000000
Si       1.72988397      -1.79582589       0.08474695       0.00000000
Si       1.88348238       2.22597963      -1.66867567       0.00000000
Si       2.25746820       0.40659840       2.68743460       0.00000000
Si      -0.47516301      -2.32650522       2.66954112       0.00000000
Si       2.61985554      -2.00313243      -2.07199512       0.00000000
Si       3.44079009       0.36465165      -1.80222973       0.00000000
Si       0.71853561      -3.67518690       1.14811194       0.00000000
