10
Lattice="16.28999089631971 0.0 0.0 0.0 16.28999089631971 0.0 0.0 0.0 34.51007289658418" Properties=species:S:1:pos:R:3:initial_magmoms:R:1 pbc="T T T"
Si       1.25825589      -1.88015922      -0.44455901       0.00000000
Si       0.60310467       1.16393679       1.93701696       0.00000000
Si      -2.28276657      -0.48444831       0.20833743       0.00000000
Si      -0.79993674       1.47056346      -1.70038126       0.00000000
Si      -0.25386336      -2.88899892      -1.90754535       0.00000000
Si      -2.21674320       2.72351763      -0.23736041       0.00000000
Si      -0.76059639       0.09374895       3.51292032       0.00000000
Si      -0.77892264       3.10848779       1.65579422       0.00000000
Si      -2.40212340      -2.59256979      -0.98588431       0.00000000
Si       2.95104753      -1.17514431      -1.84601385       0.00000000
