10
Lattice="16.28999089631971 0.0 0.0 0.0 16.28999089631971 0.0 0.0 0.0 34.51007289658418" Properties=species:S:1:pos:R:3:initial_magmoms:R:1 pbc="T T T"
Si       2.25080577      -0.48845565      -0.07857948       0.00000000
Si       0.18754677       2.32225353       0.26579673       0.00000000
Si      -0.61968789      -0.21954033      -2.31524757       0.00000000
Si      -1.35153243      -1.26374562       1.57241784       0.00000000
Si      -3.08711790      -1.18892565       0.06142796       0.00000000
Si       2.51665417      -0.88052337       2.25851298       0.00000000
Si      -2.31630768      -1.86668739      -2.04562022       0.00000000
Si      -2.07241380       2.96047944      -0.18990904       0.00000000
Si       3.27057166       1.29349116      -1.36535729       0.00000000
Si      -3.62367792       1.15810497       0.17645010       0.00000000
