10
Lattice="16.28999089631971 0.0 0.0 0.0 16.28999089631971 0.0 0.0 0.0 34.51007289658418" Properties=species:S:1:pos:R:3:initial_magmoms:R:1 pbc="T T T"
Si      -0.07913682       0.90375291       2.15294661       0.00000000
Si      -0.18754677      -2.32225353      -0.26579673       0.00000000
Si       2.05813905       0.89728578      -0.80322240       0.00000000
Si      -2.25996057       0.63822591      -0.45570577       0.00000000
Si      -2.05050375       1.94766498       1.51292244       0.00000000
Si       2.06325900      -2.81070918      -0.34437621       0.00000000
Si       3.08302489      -1.02876237      -1.63115402       0.00000000
Si      -0.34645572      -0.82256355       3.60140420       0.00000000
Si      -0.80723466      -2.54179386      -2.58104430       0.00000000
Si       3.27750143       1.71797598       1.05231624       0.00000000
