10
Lattice="16.28999089631971 0.0 0.0 0.0 16.28999089631971 0.0 0.0 0.0 34.51007289658418" Properties=species:S:1:pos:R:3:initial_magmoms:R:1 pbc="T T T"
Si       0.85354713       1.70458560      -1.37564129       0.00000000
Si      -1.15525422      -1.23111675      -1.68533486       0.00000000
Si       1.53119484      -1.61676621       0.90571737       0.00000000
Si      -1.30811958       1.38657222       1.46602323       0.00000000
Si       0.64203777       2.37330639       2.44890516       0.00000000
Si      -0.95052150      -3.38980239      -0.76836720       0.00000000
Si      -2.34742158       2.80305288      -0.13766076       0.00000000
Si       1.19221623       0.73603107      -3.41349675       0.00000000
Si      -3.36746880      -0.51090327      -1.51450991       0.00000000
Si      -2.45684151      -0.11091861       2.91123687       0.00000000
