10
Lattice="16.28999089631971 0.0 0.0 0.0 16.28999089631971 0.0 0.0 0.0 34.51007289658418" Properties=species:S:1:pos:R:3:initial_magmoms:R:1 pbc="T T T"
Si      -1.41955947       1.70184888      -0.98012113       0.00000000
Si       0.24790122      -1.23238737      -2.12219812       0.00000000
Si       1.55675385       1.11511566       1.57518007       0.00000000
Si      -1.20039381      -1.46295603       1.60766787       0.00000000
Si      -2.20082787      -1.37705886      -2.16212630       0.00000000
Si      -2.50887177      -2.78809866       0.12961991       0.00000000
Si       2.68876224       2.84499963       0.29854681       0.00000000
Si       0.12368997       2.39984280       3.10891555       0.00000000
Si       1.40046759      -3.36911409      -1.50136156       0.00000000
Si      -2.89844712       2.77680969       0.52566398       0.00000000
