10
Lattice="16.28999089631971 0.0 0.0 0.0 16.28999089631971 0.0 0.0 0.0 34.51007289658418" Properties=species:S:1:pos:R:3:initial_magmoms:R:1 pbc="T T T"
Si       1.83555883      -1.02659580       1.09994017       0.00000000
Si      -0.49973322       2.09657187       1.03050586       0.00000000
Si       1.78598836       0.93805965      -1.34782616       0.00000000
Si      -0.95966575      -1.87126488      -1.30568934       0.00000000
Si       0.92815696       0.86454288       2.65793279       0.00000000
Si       0.43879396       2.21395761      -2.80929405       0.00000000
Si      -2.58120493       2.54935242      -0.24474557       0.00000000
Si      -2.27622355      -0.51554592      -2.79231509       0.00000000
Si       1.15196527      -2.82116736       2.40663030       0.00000000
Si       2.85751198      -2.72699487      -0.25734176       0.00000000
