10
Lattice="16.28999089631971 0.0 0.0 0.0 16.28999089631971 0.0 0.0 0.0 34.51007289658418" Properties=species:S:1:pos:R:3:initial_magmoms:R:1 pbc="T T T"
Si       1.39168728       1.50126101       1.33202054       0.00000000
Si       1.46543211      -1.19019627      -1.56113304       0.00000000
Si      -1.23831693       1.49342552      -1.54163484       0.00000000
Si      -0.76075929      -2.17688157       1.50225882       0.00000000
Si      -2.63824695      -2.65189797      -0.09973417       0.00000000
Si       2.85504374      -2.49085503      -0.21092568       0.00000000
Si      -2.64029949       2.83086710      -0.12368417       0.00000000
Si       0.12329901      -2.56064139      -2.92680092       0.00000000
Si      -2.59266753       0.15413598      -2.92990683       0.00000000
Si       1.30171761      -3.48350247       1.36742789       0.00000000
