10
Lattice="16.28999089631971 0.0 0.0 0.0 16.28999089631971 0.0 0.0 0.0 34.51007289658418" Properties=species:S:1:pos:R:3:initial_magmoms:R:1 pbc="T T T"
Si      -0.87296481      -1.92409335       0.97673914       0.00000000
Si       1.69155360       0.55666188       1.54056503       0.00000000
Si      -1.96468803       1.29433824       0.41318933       0.00000000
Si       0.61888968      -0.23845302      -2.29837214       0.00000000
Si      -1.32232446      -1.63145979      -2.75635557       0.00000000
Si       0.86014458       3.35146292      -0.53970333       0.00000000
Si       0.89440245       2.17492255      -2.60254409       0.00000000
Si      -1.92034665       1.00755279       2.75911638       0.00000000
Si      -1.08242163      -3.23353242      -0.99188907       0.00000000
Si       1.09840212      -2.96800542       1.61676331       0.00000000
