10
Lattice="16.28999089631971 0.0 0.0 0.0 16.28999089631971 0.0 0.0 0.0 34.51007289658418" Properties=species:S:1:pos:R:3:initial_magmoms:R:1 pbc="T T T"
Si       0.45939592       2.27620170       0.38278594       0.00000000
Si      -1.75465521      -0.81168183       1.35182933       0.00000000
Si      -0.26288965      -0.27223848      -2.36111149       0.00000000
Si       1.99201939      -1.14878709       0.66873657       0.00000000
Si       1.98245716      -2.86423975      -0.98605686       0.00000000
Si      -1.83035484       1.39170357      -2.85812583       0.00000000
Si       2.73881815       2.44279953      -0.17503519       0.00000000
Si      -0.99920465      -2.94808438       2.03719976       0.00000000
Si       1.37627368      -2.29281750       2.73433813       0.00000000
Si      -3.76011711      -0.79597827       0.19059924       0.00000000
