10
Lattice="16.28999089631971 0.0 0.0 0.0 16.28999089631971 0.0 0.0 0.0 34.51007289658418" Properties=species:S:1:pos:R:3:initial_magmoms:R:1 pbc="T T T"
Si      -1.29213746      -0.26630892       1.90540572       0.00000000
Si      -1.49073537       1.43933553      -1.11557324       0.00000000
Si       2.07997236       0.82622880       0.75621965       0.00000000
Si       0.71460972      -2.05397352      -0.93335995       0.00000000
Si      -0.08726553       3.29760099      -1.13586517       0.00000000
Si       0.33954876      -1.18656360       3.26710494       0.00000000
Si       2.54581749      -0.69009327       2.48910942       0.00000000
Si       3.38941143       1.20951621      -1.17606943       0.00000000
Si      -2.18380482       1.81130139       2.51202412       0.00000000
Si      -3.13731458       2.14303095       0.40090374       0.00000000
