10
Lattice="10.86 0.0 0.0 0.0 10.86 0.0 0.0 0.0 10.86" Properties=species:S:1:pos:R:3:initial_magmoms:R:1 pbc="T T T"
Si       1.52715492      -1.33824522      -0.97090572       0.00000000
Si      -1.37236734      -1.20018204       1.49574780       0.00000000
Si      -1.37236734       1.51481796      -1.21925220       0.00000000
Si       1.34263266       1.51481796       1.49574780       0.00000000
Si       0.28292472      -2.38790766      -2.49174012       0.00000000
Si      -2.72986734      -2.55768204       0.13824780       0.00000000
Si      -2.72986734       0.15731796      -2.57675220       0.00000000
Si      -0.10846968      -2.52762156       2.80539864       0.00000000
Si       2.58769908       0.04960848      -2.75990610       0.00000000
Si      -0.01486734       2.87231796      -2.57675220       0.00000000
