10
Lattice="16.290000149 0.0 0.0 0.0 16.290000149 0.0 0.0 0.0 29.1751946751" Properties=species:S:1:pos:R:3:initial_magmoms:R:1 pbc="T T T"
Si      -1.39922956       1.42358311      -1.22617508       0.00000000
Si      -1.32628294      -1.38139201       1.37740179       0.00000000
Si       1.19726614      -1.47211102      -1.43232701       0.00000000
Si       1.30828249       1.44695926       1.37103284       0.00000000
H        3.22786353       1.73903897      -0.49764130       0.00000000
Si      -0.00420282       2.66372453      -2.64654026       0.00000000
Si       2.66962151      -2.68089419       0.02517819       0.00000000
Si       2.53490321      -0.13004307      -2.81237207       0.00000000
Si      -2.90111871       0.13277979      -2.51093395       0.00000000
Si       2.73593811       0.08050518       2.70621520       0.00000000
