10
Lattice="16.290000149 0.0 0.0 0.0 16.290000149 0.0 0.0 0.0 29.1751946751" Properties=species:S:1:pos:R:3:initial_magmoms:R:1 pbc="T T T"
Si      -0.91093681      -1.82592983       1.18013662       0.00000000
Si       1.14554539       0.12939147      -2.05933112       0.00000000
Si       1.56015847       0.77942764       1.59474532       0.00000000
Si      -1.93365560       1.49154499      -0.31310819       0.00000000
Si      -1.95058091      -0.34207371       2.64689036       0.00000000
H       -2.83450890       0.50782446       1.75771795       0.00000000
H        1.86183299      -2.85430125      -0.14847257       0.00000000
Si      -0.05095512       0.95487094       3.27576168       0.00000000
Si       2.39420648       2.70917201       0.57629762       0.00000000
Si       2.67095729       1.97415254      -1.63133101       0.00000000
