10
Lattice="16.290000149 0.0 0.0 0.0 16.290000149 0.0 0.0 0.0 29.1751946751" Properties=species:S:1:pos:R:3:initial_magmoms:R:1 pbc="T T T"
Si       1.31228983       1.36001953       1.34525364       0.00000000
Si      -1.37502262       1.26434836      -1.41730762       0.00000000
Si       1.28697517      -1.44941905      -1.32771643       0.00000000
Si      -1.42716691      -1.39069360       1.28133079       0.00000000
Si      -2.18426096      -0.59463388      -2.59974704       0.00000000
Si      -0.55154683      -2.33051258      -2.51505349       0.00000000
Si       2.62107731       2.64956852      -0.12550294       0.00000000
Si       2.62932005      -0.03142341       2.68710837       0.00000000
Si      -0.10663434       2.69063561       2.64754680       0.00000000
Si       2.53687430      -2.81966871       0.08518573       0.00000000
