10
Lattice="16.290000149 0.0 0.0 0.0 16.290000149 0.0 0.0 0.0 29.1751946751" Properties=species:S:1:pos:R:3:initial_magmoms:R:1 pbc="T T T"
H       -1.05085162      -1.12029589       0.19617401       0.00000000
Si       1.46755145      -1.08753670      -1.43434010       0.00000000
Si       1.14478791      -0.18445167       2.02102409       0.00000000
Si      -1.26488593       1.63479925      -1.15953894       0.00000000
H       -1.56708172       0.40487166       2.01110452       0.00000000
Si      -0.01804932      -2.23642154       2.60735797       0.00000000
Si      -2.52861527      -0.01707192      -2.37162240       0.00000000
Si      -2.01963422      -0.86521078       2.71110497       0.00000000
Si      -2.95705857      -1.74434951      -0.74638901       0.00000000
Si       0.06634917      -2.53259003      -2.60712457       0.00000000
