10
Lattice="16.290000149 0.0 0.0 0.0 16.290000149 0.0 0.0 0.0 29.1751946751" Properties=species:S:1:pos:R:3:initial_magmoms:R:1 pbc="T T T"
Si       0.43764714      -0.24899265       2.28396173       0.00000000
Si      -1.71636329       1.63181819       0.10406792       0.00000000
Si      -0.05064561      -2.29560311      -0.66420248       0.00000000
Si       1.86816980       0.89565679      -1.27866126       0.00000000
H       -0.92230723       0.15920217      -2.52881835       0.00000000
Si       2.15332625      -2.67739184       0.13896145       0.00000000
Si      -0.31688937       3.36456921      -0.81810163       0.00000000
Si       2.07036128      -1.98487136       2.36865528       0.00000000
Si       3.45854622       1.70631236       0.28842597       0.00000000
Si      -3.77465367       0.62312509      -0.61515898       0.00000000
