10
Lattice="16.290000149 0.0 0.0 0.0 16.290000149 0.0 0.0 0.0 29.1751946751" Properties=species:S:1:pos:R:3:initial_magmoms:R:1 pbc="T T T"
Si      -1.43321050       1.31975065      -1.28300836       0.00000000
Si      -1.38002365      -1.31776327       1.36364860       0.00000000
Si       1.33530760       1.40432833       1.33858711       0.00000000
Si       1.34627077      -1.27922113      -1.46074365       0.00000000
Si      -0.07744266       2.65994525      -2.59872795       0.00000000
Si       2.68581377      -2.61563645      -0.03880301       0.00000000
Si      -0.02422323      -2.68809437       2.70276086       0.00000000
Si      -2.75343357      -2.64437201      -0.00014588       0.00000000
Si       2.69811272       0.06494823       2.70299426       0.00000000
Si      -2.74931220       0.06131556       2.68607265       0.00000000
