10
Lattice="16.290000149 0.0 0.0 0.0 16.290000149 0.0 0.0 0.0 29.1751946751" Properties=species:S:1:pos:R:3:initial_magmoms:R:1 pbc="T T T"
Si       1.35638523      -1.40791213       1.31375902       0.00000000
Si      -1.45917025       1.27964467       1.34751472       0.00000000
Si      -1.10743494      -1.70709428      -1.24811483       0.00000000
Si       1.19351781       1.69236812      -1.18871413       0.00000000
Si       2.36669104      -2.64613133      -0.52979236       0.00000000
Si      -2.77585023      -2.48964959       0.19952916       0.00000000
Si       2.52937927       0.05924673       2.76444014       0.00000000
Si      -2.86008583       2.45719991      -0.10599348       0.00000000
Si      -0.13109866      -2.60822450       2.74969500       0.00000000
Si       0.30840065      -3.65482443      -1.24901926       0.00000000
