10
Lattice="16.290000149 0.0 0.0 0.0 16.290000149 0.0 0.0 0.0 29.1751946751" Properties=species:S:1:pos:R:3:initial_magmoms:R:1 pbc="T T T"
Si      -0.92991466       1.04523157      -1.83325253       0.00000000
Si       1.06935706       1.75756070       1.06959181       0.00000000
Si       1.33411843      -1.54574182      -1.15708822       0.00000000
Si      -1.93763036      -1.02864835       0.90303063       0.00000000
H        0.51354225      -1.28251171       2.39758832       0.00000000
Si       0.69252049      -2.66995383       1.78686397       0.00000000
Si      -1.69852574      -1.00550026      -2.70699126       0.00000000
Si      -0.47462544      -2.87551897      -1.75964352       0.00000000
Si      -2.22278681       2.54440028      -0.51459208       0.00000000
Si      -1.20790351      -3.21884539       0.50146325       0.00000000
