10
Lattice="16.290000149 0.0 0.0 0.0 16.290000149 0.0 0.0 0.0 29.1751946751" Properties=species:S:1:pos:R:3:initial_magmoms:R:1 pbc="T T T"
Si      -1.37902996       1.34713414       1.32134457       0.00000000
Si      -1.37042884      -1.36156708      -1.32747136       0.00000000
Si       1.35190711       1.39147552      -1.32723796       0.00000000
Si       1.35589816      -1.32980158       1.38789319       0.00000000
Si       0.04101822       2.65792529       2.63443255       0.00000000
Si       0.01488906      -2.67597461      -2.68589760       0.00000000
Si       2.70295085      -2.67744071       0.02115202       0.00000000
Si      -2.72622926       0.00876402      -2.66658362       0.00000000
Si      -2.72837954      -0.01042560       2.67446092       0.00000000
Si       2.69586470       0.06050106      -2.71422671       0.00000000
