10
Lattice="16.290000149 0.0 0.0 0.0 16.290000149 0.0 0.0 0.0 29.1751946751" Properties=species:S:1:pos:R:3:initial_magmoms:R:1 pbc="T T T"
Si      -1.39282759       1.28581858      -1.36023510       0.00000000
Si       1.44430399      -1.36796905      -1.23201012       0.00000000
Si      -1.38756592      -1.31411431       1.35410831       0.00000000
Si       0.86636737       1.90558793       1.05220340       0.00000000
Si       0.05895351      -2.71666703      -2.57223104       0.00000000
Si      -2.44006283       0.14965623       2.84291849       0.00000000
Si      -2.57549789       2.73978255       0.05076484       0.00000000
Si      -0.00724905       2.62337420      -2.69844293       0.00000000
Si       2.78376555      -0.03295467      -2.60578251       0.00000000
Si       1.44816472       1.50325750       3.20498266       0.00000000
