10
Lattice="16.290000149 0.0 0.0 0.0 16.290000149 0.0 0.0 0.0 29.1751946751" Properties=species:S:1:pos:R:3:initial_magmoms:R:1 pbc="T T T"
Si       1.41957903      -1.21599964       1.39022720       0.00000000
Si      -1.42074540       1.24815610       1.37105910       0.00000000
Si      -1.37553217      -1.40656006      -1.30185554       0.00000000
Si       1.35924087       1.43207020      -1.29838369       0.00000000
H       -1.18326651      -1.45376848       3.05939844       0.00000000
Si       2.56185013      -2.64026693      -0.07486355       0.00000000
Si      -0.05216547      -2.42644439       2.77660328       0.00000000
Si      -0.01954311       2.69320943       2.54384357       0.00000000
Si       2.54969779       0.02871927      -2.77651575       0.00000000
Si      -2.71485559       2.65310345       0.00723545       0.00000000
