10
Lattice="16.290000149 0.0 0.0 0.0 16.290000149 0.0 0.0 0.0 29.1751946751" Properties=species:S:1:pos:R:3:initial_magmoms:R:1 pbc="T T T"
Si       0.60512464       0.50629320      -2.18472610       0.00000000
Si      -2.30042495      -0.06107121       0.44996903       0.00000000
Si       0.76861108       2.05073183       0.87373873       0.00000000
Si       1.22390029      -1.87001871       0.94734775       0.00000000
Si       1.69852574       1.00550026       2.70699126       0.00000000
Si       3.03264417      -0.54024156       1.54990304       0.00000000
Si       1.30474756      -1.53696477      -2.95287980       0.00000000
Si      -0.23910462      -0.02314809       3.61002189       0.00000000
Si      -2.44307648       0.35864064       2.80685795       0.00000000
Si      -3.16949646       2.01401417      -0.33271392       0.00000000
