10
Lattice="16.290000149 0.0 0.0 0.0 16.290000149 0.0 0.0 0.0 29.1751946751" Properties=species:S:1:pos:R:3:initial_magmoms:R:1 pbc="T T T"
Si       1.38725641       1.43705494      -1.17818189       0.00000000
Si       1.70176745      -1.59749515       0.01709666       0.00000000
Si      -0.95451256       1.27290061       1.75226219       0.00000000
Si      -1.59037642      -0.81065557      -1.56708723       0.00000000
Si      -2.05640075       1.21515256      -2.63379070       0.00000000
Si       0.63241039      -3.35505585      -1.05249515       0.00000000
Si      -0.16760781       2.72111420      -2.31910705       0.00000000
Si      -2.40642398       2.68672601       0.53200967       0.00000000
Si      -0.29750427      -2.30982428      -2.88574768       0.00000000
Si       2.35833590      -2.02009034       2.14695590       0.00000000
