10
Lattice="16.290000149 0.0 0.0 0.0 16.290000149 0.0 0.0 0.0 29.1751946751" Properties=species:S:1:pos:R:3:initial_magmoms:R:1 pbc="T T T"
Si       1.13110105      -0.97267591      -0.28279516       0.00000000
Si      -1.80956163       1.62623071      -0.24075371       0.00000000
H       -1.16879448      -1.80845066       1.94811527       0.00000000
Si      -1.51972995       1.39546657       2.11654367       0.00000000
Si      -0.20084886      -2.65922849      -1.41928570       0.00000000
Si       2.40959727      -0.80907544       1.74791509       0.00000000
Si       2.60284555       0.23776884      -1.66917124       0.00000000
Si      -0.23747888       2.70192458      -1.68833934       0.00000000
Si      -1.09485417      -0.73774153       3.01090927       0.00000000
Si      -2.97846689      -0.01381392      -1.59389924       0.00000000
