10
Lattice="16.290000149 0.0 0.0 0.0 16.290000149 0.0 0.0 0.0 29.1751946751" Properties=species:S:1:pos:R:3:initial_magmoms:R:1 pbc="T T T"
Si      -0.83364076       1.24454950      -1.71334832       0.00000000
Si      -1.83226664      -1.02273508       0.94183947       0.00000000
Si       1.03953007       1.85348925       0.95262262       0.00000000
Si       1.74633689      -1.54232092      -0.45138782       0.00000000
H       -1.01261899       2.63199161      -1.10262397       0.00000000
Si      -0.42585318      -2.38615922       2.19653039       0.00000000
Si       1.49879404      -1.02695419      -2.74959288       0.00000000
Si       2.45659718       0.51061234       2.20708014       0.00000000
Si       1.06103287       1.26136566      -3.05313161       0.00000000
Si       0.99619867      -0.92633086       3.42183605       0.00000000
