10
Lattice="16.290000149 0.0 0.0 0.0 16.290000149 0.0 0.0 0.0 29.1751946751" Properties=species:S:1:pos:R:3:initial_magmoms:R:1 pbc="T T T"
Si      -0.51563063      -0.91083907      -2.09139466       0.00000000
Si       2.05829039       1.00869310       0.71922690       0.00000000
Si      -1.41583559       1.94773016       0.00090443       0.00000000
Si      -0.68291427      -1.76552651       1.50453561       0.00000000
H        1.46069173       1.56778219      -2.38177537       0.00000000
Si      -1.94624777      -0.33831072       2.83152996       0.00000000
H        2.85234645      -0.46392291      -1.91365937       0.00000000
Si       0.25917390       1.20200653      -3.26557954       0.00000000
Si       1.04798458       2.24691230       2.56277828       0.00000000
Si      -3.08425089       1.16517484       1.44854842       0.00000000
