10
Lattice="16.290000149 0.0 0.0 0.0 16.290000149 0.0 0.0 0.0 29.1751946751" Properties=species:S:1:pos:R:3:initial_magmoms:R:1 pbc="T T T"
Si      -1.32729292       1.35887923       1.36636189       0.00000000
Si       1.37727064      -1.33991767       1.35903892       0.00000000
Si       1.41108868       1.40447494      -1.25778932       0.00000000
Si      -1.41973867      -1.42936606      -1.23556074       0.00000000
Si       0.07812684      -2.66509615      -2.51568951       0.00000000
Si       2.66903507       0.00360009      -2.62271871       0.00000000
Si      -2.66963780      -0.05911641      -2.64846290       0.00000000
Si       0.05128092       2.72280836       2.67128082       0.00000000
Si      -2.64432314       2.75032218       0.02450716       0.00000000
Si       0.09629019       2.66830202      -2.73079822       0.00000000
