10
Lattice="16.290000149 0.0 0.0 0.0 16.290000149 0.0 0.0 0.0 29.1751946751" Properties=species:S:1:pos:R:3:initial_magmoms:R:1 pbc="T T T"
Si       1.24232428      -1.39393531       1.36592426       0.00000000
Si      -1.36735003       1.34840476       1.32767558       0.00000000
Si      -1.29207394      -1.43762509      -1.31235861       0.00000000
Si       1.45925821       1.29712384      -1.30165131       0.00000000
Si       2.68485266      -0.06489936       2.57450670       0.00000000
Si      -2.64701099      -0.07050312      -2.64869922       0.00000000
Si       0.09731646       2.62358597      -2.68268833       0.00000000
Si       0.01273878       2.69967656       2.62468804       0.00000000
Si      -2.60007950      -2.78389587       0.11162429       0.00000000
Si       0.13421331      -2.79922801      -2.61059642       0.00000000
