10
Lattice="16.290000149 0.0 0.0 0.0 16.290000149 0.0 0.0 0.0 29.1751946751" Properties=species:S:1:pos:R:3:initial_magmoms:R:1 pbc="T T T"
Si      -1.43413903       1.34623168      -1.26188552       0.00000000
Si      -1.37974672      -1.34356663       1.33526113       0.00000000
Si       1.34675947       1.38787055       1.33949154       0.00000000
Si       1.35399223      -1.32918256      -1.40134295       0.00000000
Si      -0.10054188       2.68636763      -2.59042761       0.00000000
Si      -0.01050705      -2.69184107       2.67656153       0.00000000
Si       2.70019784      -2.67392207      -0.03568126       0.00000000
Si       2.70687674       0.03502350       2.69225779       0.00000000
Si      -2.73038321       0.03297096       2.68414709       0.00000000
Si      -0.06805962      -2.78901093      -2.62664861       0.00000000
