10
Lattice="16.290000149 0.0 0.0 0.0 16.290000149 0.0 0.0 0.0 29.1751946751" Properties=species:S:1:pos:R:3:initial_magmoms:R:1 pbc="T T T"
Si       1.32002758       1.34104168       1.39460932       0.00000000
Si      -1.35851597       1.33960816      -1.38118581       0.00000000
Si       1.41929884      -1.38178297      -1.28436793       0.00000000
Si      -1.37435799      -1.36083403       1.36193310       0.00000000
Si       0.03132567      -2.65654064      -2.66182193       0.00000000
Si       2.67555107       2.65553066      -0.00494520       0.00000000
Si       0.12896793       2.53992053      -2.81712179       0.00000000
Si       2.62198955      -2.77905774       0.15736225       0.00000000
Si      -2.86526442      -0.04530249      -2.54837011       0.00000000
Si       2.67250484      -0.02630835       2.75096412       0.00000000
