10
Lattice="16.290000149 0.0 0.0 0.0 16.290000149 0.0 0.0 0.0 29.1751946751" Properties=species:S:1:pos:R:3:initial_magmoms:R:1 pbc="T T T"
Si       1.36011727      -1.35284705       1.35276625       0.00000000
Si      -1.36264222       1.36253308       1.34576420       0.00000000
Si       1.34970796       1.38794548      -1.33531949       0.00000000
Si      -1.34675947      -1.38787055      -1.33949154       0.00000000
Si      -2.78089851      -0.04163887      -2.60137706       0.00000000
Si       0.00034209      -2.71674360       2.69462098       0.00000000
Si       2.79243183       0.05628847      -2.61818197       0.00000000
Si      -0.00273672       2.70621374       2.70906270       0.00000000
Si      -0.02756268       2.72786315      -2.69435840       0.00000000
Si      -2.72715779       0.01510572       2.69596304       0.00000000
