10
Lattice="16.290000149 0.0 0.0 0.0 16.290000149 0.0 0.0 0.0 29.1751946751" Properties=species:S:1:pos:R:3:initial_magmoms:R:1 pbc="T T T"
Si       1.21966294      -1.28644738      -1.60457736       0.00000000
Si      -1.29527688       1.36617715      -1.48227494       0.00000000
Si      -1.43633199      -1.42153383       1.35078234       0.00000000
Si       1.33194991       1.68655259       1.13649053       0.00000000
H        2.84075416       0.22828806       0.50651055       0.00000000
H        0.20084886       2.65922849       1.41928570       0.00000000
H       -0.96794562       0.85077784       3.36740097       0.00000000
Si      -2.62499701      -2.56776519      -0.34385884       0.00000000
Si       3.44488510      -1.08055155       0.94988599       0.00000000
Si       2.60114454      -2.73720873      -0.44891872       0.00000000
