10
Lattice="16.290000149 0.0 0.0 0.0 16.290000149 0.0 0.0 0.0 29.1751946751" Properties=species:S:1:pos:R:3:initial_magmoms:R:1 pbc="T T T"
Si       1.35725023      -1.24323652       1.45631193       0.00000000
Si      -1.17158039       1.59102314       1.28633433       0.00000000
Si       1.31574331       1.42646644      -1.34707709       0.00000000
Si      -1.45868806      -1.38292327      -1.34824410       0.00000000
Si      -0.52564247       2.60109274      -2.27939961       0.00000000
Si       2.80295517      -2.43673967       0.09890391       0.00000000
Si      -1.45683100       3.41642028      -0.28448732       0.00000000
Si       0.00652089      -2.59533911      -2.68551832       0.00000000
Si      -2.64958481       0.28334826       2.65942694       0.00000000
Si       0.01208718      -2.70500339       2.69086905       0.00000000
