10
Lattice="16.290000149 0.0 0.0 0.0 16.290000149 0.0 0.0 0.0 29.1751946751" Properties=species:S:1:pos:R:3:initial_magmoms:R:1 pbc="T T T"
Si       1.22108212      -0.47576574       0.77086699       0.00000000
H       -0.81906121       0.73994068      -1.63672842       0.00000000
H        0.60579253       1.67436767      -1.09541186       0.00000000
H       -0.60028651       0.13033629       2.34819472       0.00000000
Si      -1.91168039       0.56205388       1.72956389       0.00000000
Si      -1.67075129      -0.17687682      -2.46013994       0.00000000
Si       2.52193637      -1.58633650      -0.82845883       0.00000000
Si      -1.63729162       2.60177366       0.53495637       0.00000000
Si       0.79263883      -2.20304333       2.39610039       0.00000000
Si      -2.93822733      -1.39975084       0.83934118       0.00000000
