10
Lattice="16.290000149 0.0 0.0 0.0 16.290000149 0.0 0.0 0.0 29.1751946751" Properties=species:S:1:pos:R:3:initial_magmoms:R:1 pbc="T T T"
Si      -1.44570493       1.19350315       1.35740802       0.00000000
Si      -1.35746200      -1.34594497      -1.34132958       0.00000000
Si       1.27894420      -1.49592700       1.33704987       0.00000000
Si       1.31111695       1.36536265      -1.48729307       0.00000000
Si       2.16288848      -0.50984442      -2.60321510       0.00000000
Si       0.36373941      -2.10470060      -2.72166639       0.00000000
Si      -0.01935252       2.55308285       2.63712834       0.00000000
Si      -2.80295517       2.43673967      -0.09890391       0.00000000
Si       2.69149898      -0.19935702       2.68140462       0.00000000
Si      -2.79086799      -0.26826372       2.59196514       0.00000000
