10
Lattice="16.290000149 0.0 0.0 0.0 16.290000149 0.0 0.0 0.0 29.1751946751" Properties=species:S:1:pos:R:3:initial_magmoms:R:1 pbc="T T T"
Si       1.36042678       1.34996860      -1.35343728       0.00000000
Si       1.37257912      -1.34208424       1.35437089       0.00000000
Si      -1.33874939       1.36277254       1.37348064       0.00000000
Si      -1.34757397      -1.37868787      -1.35154089       0.00000000
Si      -2.68876226      -0.04786002       2.67892473       0.00000000
Si       2.67046859      -2.70036074      -0.06255162       0.00000000
Si      -0.02867529       2.69899238      -2.68353441       0.00000000
Si      -2.69078222      -0.02065572      -2.72012010       0.00000000
Si       2.67861359      -0.01295055      -2.74436469       0.00000000
Si       2.72609894       0.03929148       2.70742889       0.00000000
