10
Lattice="16.290000149 0.0 0.0 0.0 16.290000149 0.0 0.0 0.0 29.1751946751" Properties=species:S:1:pos:R:3:initial_magmoms:R:1 pbc="T T T"
Si      -0.46602432       2.02580813      -1.06670347       0.00000000
Si       1.59037642       0.81065557       1.56708723       0.00000000
Si       1.29287215      -1.49916871      -1.31866045       0.00000000
Si      -1.86816980      -0.89565679       1.27866126       0.00000000
H       -2.79047703      -0.73645462      -1.25015709       0.00000000
H        1.04936923       1.14466573      -2.76023599       0.00000000
H       -1.09351513       1.94002499      -2.45614294       0.00000000
Si      -2.18505917       2.46891242       0.46055962       0.00000000
Si       2.22278681      -2.54440028       0.51459208       0.00000000
Si       3.29214387      -0.78683959       1.58418390       0.00000000
