10
Lattice="16.290000149 0.0 0.0 0.0 16.290000149 0.0 0.0 0.0 29.1751946751" Properties=species:S:1:pos:R:3:initial_magmoms:R:1 pbc="T T T"
Si       1.35977518       1.36389655      -1.34185473       0.00000000
Si      -1.35285193       1.38451969       1.33701165       0.00000000
Si       1.38763108      -1.34096023       1.34798152       0.00000000
Si      -1.35760861      -1.36296802      -1.35755098       0.00000000
Si      -2.70796817       0.03023424       2.67145588       0.00000000
Si       0.04950531      -2.78868513       2.60263159       0.00000000
Si       2.69148269       2.71890365       0.04174970       0.00000000
Si      -0.00034209       2.71674360      -2.69462098       0.00000000
Si       2.71059086       0.00304623      -2.70203148       0.00000000
Si      -2.72684828      -0.01469358      -2.69885138       0.00000000
