10
Lattice="16.290000149 0.0 0.0 0.0 16.290000149 0.0 0.0 0.0 29.1751946751" Properties=species:S:1:pos:R:3:initial_magmoms:R:1 pbc="T T T"
Si      -1.55298925       1.08822088      -1.36621602       0.00000000
Si       1.38245086      -1.48012570      -1.21578871       0.00000000
Si      -0.84180205      -1.48486609       1.63617409       0.00000000
Si       0.42759621       1.81529246       1.48259587       0.00000000
H        0.35971578      -1.11909043       2.51997826       0.00000000
Si      -1.87575279       1.99130591       2.08914817       0.00000000
Si      -0.24511563       2.57434130      -2.64108450       0.00000000
Si      -3.02054070       2.17575758       0.06812408       0.00000000
Si       2.69330717      -0.11890071      -2.59708830       0.00000000
Si      -0.11386710      -2.82098820      -2.51983239       0.00000000
