10
Lattice="16.290000149 0.0 0.0 0.0 16.290000149 0.0 0.0 0.0 29.1751946751" Properties=species:S:1:pos:R:3:initial_magmoms:R:1 pbc="T T T"
Si      -1.48234114       1.27923742       1.30766140       0.00000000
Si       1.30386008       1.34025976      -1.45969334       0.00000000
Si      -1.41177286      -1.28304928      -1.41482189       0.00000000
Si       1.29527688      -1.36617715       1.48227494       0.00000000
H        1.49612574       1.29305134       2.90156064       0.00000000
Si      -2.87474520      -0.55889362       2.02645067       0.00000000
Si      -2.76324015      -2.29860047       0.21895984       0.00000000
Si       2.51493982      -2.65262453      -0.12230242       0.00000000
Si       2.62722679       0.32037543       2.61876547       0.00000000
Si       2.67939226       2.74681983      -0.15783780       0.00000000
