10
Lattice="16.290000149 0.0 0.0 0.0 16.290000149 0.0 0.0 0.0 29.1751946751" Properties=species:S:1:pos:R:3:initial_magmoms:R:1 pbc="T T T"
Si      -0.78068197      -0.05339862      -1.29304463       0.00000000
H        1.14935725       1.60305004      -0.79648281       0.00000000
H       -2.14288436       0.79535926       0.30409305       0.00000000
Si      -1.51539355       0.88114240       1.69353253       0.00000000
H        1.67376494       1.26846973      -1.28367939       0.00000000
Si       0.24350292      -2.64383444       1.44157554       0.00000000
Si       2.22329180      -2.03654324       0.26000933       0.00000000
Si       0.73318033      -0.90502354      -2.87699512       0.00000000
Si       0.37339938       2.38710404       2.00821618       0.00000000
Si      -1.04936923      -1.14466573       2.76023599       0.00000000
