10
Lattice="16.290000149 0.0 0.0 0.0 16.290000149 0.0 0.0 0.0 29.1751946751" Properties=species:S:1:pos:R:3:initial_magmoms:R:1 pbc="T T T"
Si       1.32599787      -1.36085032       1.36560334       0.00000000
Si      -1.34103354      -1.36088290      -1.35457511       0.00000000
Si      -1.32023121       1.33547050       1.40828665       0.00000000
Si       1.35139398       1.36533007      -1.36359025       0.00000000
Si       2.63721256       0.07156197       2.68160884       0.00000000
Si      -2.65860133       2.70159878       0.03148003       0.00000000
Si      -2.67749773       0.01451439      -2.70731219       0.00000000
Si      -2.69393434      -2.70817994       0.02007253       0.00000000
Si       2.70701521      -2.70501968       0.00889843       0.00000000
Si       0.02448713      -2.71249679      -2.70363612       0.00000000
