10
Lattice="16.290000149 0.0 0.0 0.0 16.290000149 0.0 0.0 0.0 29.1751946751" Properties=species:S:1:pos:R:3:initial_magmoms:R:1 pbc="T T T"
Si       1.34796216       1.35325918      -1.35790109       0.00000000
Si      -1.34342002       1.36603054       1.35116162       0.00000000
Si       1.34320825      -1.35803215       1.36857921       0.00000000
Si      -1.37065690      -1.34814412      -1.35585882       0.00000000
Si      -2.68154579      -0.08169435       2.60581169       0.00000000
Si       2.67058751      -2.70712109      -0.02695788       0.00000000
Si       2.66210694       2.71964810       0.03658569       0.00000000
Si      -0.02046024       2.71003700      -2.69885138       0.00000000
Si       2.69078222       0.02065572       2.72012010       0.00000000
Si      -0.02669931      -2.67911858      -2.74284758       0.00000000
