10
Lattice="16.290000149 0.0 0.0 0.0 16.290000149 0.0 0.0 0.0 29.1751946751" Properties=species:S:1:pos:R:3:initial_magmoms:R:1 pbc="T T T"
Si      -1.43409016       1.32111901       1.28373774       0.00000000
Si      -1.37678194      -1.34032492      -1.33254784       0.00000000
Si       1.34934958       1.35755974      -1.35311635       0.00000000
Si       1.35692443      -1.33520986       1.37639816       0.00000000
Si      -0.00809613       2.71490771       2.46119025       0.00000000
Si       0.00162900      -2.70668126      -2.64423542       0.00000000
Si      -2.72754875       0.03595203      -2.67472350       0.00000000
Si       2.72837954       0.01042560      -2.67446092       0.00000000
Si      -0.01278765       2.75165796      -2.65797694       0.00000000
Si       0.01746288      -2.67022424       2.75017055       0.00000000
