10
Lattice="16.290000149 0.0 0.0 0.0 16.290000149 0.0 0.0 0.0 29.1751946751" Properties=species:S:1:pos:R:3:initial_magmoms:R:1 pbc="T T T"
Si      -1.66841530      -0.78255532       1.44764398       0.00000000
Si      -0.52177848       0.67847851      -2.22717601       0.00000000
Si       1.10743494       1.70709428       1.24811483       0.00000000
Si       1.41583559      -1.94773016      -0.00090443       0.00000000
H       -2.84481395      -1.32165658       0.39150194       0.00000000
Si       2.46382017       0.29918214       2.56187384       0.00000000
Si       0.90020496      -2.85856923      -2.09229909       0.00000000
Si       3.47412598      -0.93903706       0.71832247       0.00000000
Si      -0.53041218      -2.28604088       2.83062553       0.00000000
Si       1.67500949      -0.74572363      -3.26648397       0.00000000
