10
Lattice="16.290000149 0.0 0.0 0.0 16.290000149 0.0 0.0 0.0 29.1751946751" Properties=species:S:1:pos:R:3:initial_magmoms:R:1 pbc="T T T"
Si       1.57933180      -1.08367597       1.32254075       0.00000000
Si      -1.22935744      -1.13612977      -1.62718813       0.00000000
Si      -1.59954769      -0.07367967       1.79497468       0.00000000
Si       1.29774286       1.59255928      -1.27335137       0.00000000
H        0.92782954      -1.89967466       2.40257728       0.00000000
H       -0.49702419      -2.83410165       1.86126072       0.00000000
Si      -1.71387092       2.23424520       2.02893056       0.00000000
Si      -2.64561005      -2.45988776      -0.38864277       0.00000000
Si       2.81544960      -2.45195453      -0.09662824       0.00000000
Si       0.13188384      -2.50644458      -2.88986138       0.00000000
