10
Lattice="16.290000149 0.0 0.0 0.0 16.290000149 0.0 0.0 0.0 29.1751946751" Properties=species:S:1:pos:R:3:initial_magmoms:R:1 pbc="T T T"
Si       0.85144573      -1.84699280       1.11708903       0.00000000
Si      -1.72120142       0.75875563       1.38033681       0.00000000
Si      -1.07774641      -0.08627184      -2.09912608       0.00000000
Si       1.79914907       1.59485617       0.11845129       0.00000000
H        2.33429186       1.85171690      -1.26856664       0.00000000
H       -1.14562684      -3.02065473      -1.06174368       0.00000000
H        1.65152909       0.93919996      -2.87851223       0.00000000
Si      -0.36373941       2.10470060       2.72166639       0.00000000
Si       2.57048057      -2.29009709      -0.41017406       0.00000000
Si      -0.62809354       2.12250557      -2.71075486       0.00000000
