10
Lattice="16.290000149 0.0 0.0 0.0 16.290000149 0.0 0.0 0.0 29.1751946751" Properties=species:S:1:pos:R:3:initial_magmoms:R:1 pbc="T T T"
Si       1.25307568      -1.10739584       1.60416890       0.00000000
Si      -1.80874388      -1.32977715      -0.60255530       0.00000000
Si       1.21122667       1.32908482      -1.49814625       0.00000000
Si      -1.33411843       1.54574182       1.15708822       0.00000000
Si      -0.64159795      -1.12421201       2.94395219       0.00000000
H        3.08957772      -0.52776017      -0.77343441       0.00000000
Si      -0.19186362      -2.85904164      -1.68116224       0.00000000
Si       2.74813932       2.03888900       0.11696336       0.00000000
Si      -3.03264417       0.54024156      -1.54990304       0.00000000
Si      -2.54202194      -1.67310356       1.65855147       0.00000000
