10
Lattice="16.290000149 0.0 0.0 0.0 16.290000149 0.0 0.0 0.0 29.1751946751" Properties=species:S:1:pos:R:3:initial_magmoms:R:1 pbc="T T T"
Si       1.33012738      -1.41972890      -1.28633433       0.00000000
Si      -1.34868169      -1.37366567       1.33736175       0.00000000
Si       1.38561112       1.35024553       1.32507899       0.00000000
Si      -1.30031668       1.34938216      -1.41873137       0.00000000
Si       2.66372453      -0.07959294      -2.61487642       0.00000000
Si       0.01446552       2.69596244       2.66369527       0.00000000
Si      -2.67819005       2.69824304      -0.06806573       0.00000000
Si      -2.70861977      -0.01627371       2.67699916       0.00000000
Si      -2.72870535      -0.05450634      -2.66166760       0.00000000
Si       0.03388320      -2.73298961       2.65969827       0.00000000
