10
Lattice="16.290000149 0.0 0.0 0.0 16.290000149 0.0 0.0 0.0 29.1751946751" Properties=species:S:1:pos:R:3:initial_magmoms:R:1 pbc="T T T"
Si       1.37404522       1.38414502       1.30917851       0.00000000
Si       1.37052658      -1.34020601      -1.36580756       0.00000000
Si      -1.32403492       1.36384768      -1.39311555       0.00000000
Si      -1.36594909      -1.36203135       1.37517280       0.00000000
Si      -2.67380804      -2.67458996      -0.07054562       0.00000000
Si       2.67630041       0.00322542       2.68540162       0.00000000
Si      -2.68451057       2.71531496      -0.04023259       0.00000000
Si       2.70252731      -2.70650207       0.00647689       0.00000000
Si      -2.69267186       0.02875185       2.73730429       0.00000000
Si       0.05069448       2.75493225       2.68315513       0.00000000
