10
Lattice="16.290000149 0.0 0.0 0.0 16.290000149 0.0 0.0 0.0 29.1751946751" Properties=species:S:1:pos:R:3:initial_magmoms:R:1 pbc="T T T"
Si      -1.37841094       1.36635634       1.31168758       0.00000000
Si      -1.37863900      -1.33548679      -1.34439297       0.00000000
Si       1.35632170       1.35553978      -1.35769686       0.00000000
Si       1.35470899      -1.35185824       1.36890013       0.00000000
Si      -0.00162900       2.70668126       2.64423542       0.00000000
Si      -0.00749340      -2.68120370      -2.68300925       0.00000000
Si      -2.73145835       0.01422117       2.67314804       0.00000000
Si       2.71518464      -2.70332552       0.01601718       0.00000000
Si       0.00052128       2.72587088      -2.69680912       0.00000000
Si      -2.72867276      -2.70031187       0.01219523       0.00000000
