10
Lattice="16.290000149 0.0 0.0 0.0 16.290000149 0.0 0.0 0.0 29.1751946751" Properties=species:S:1:pos:R:3:initial_magmoms:R:1 pbc="T T T"
Si      -1.33946155      -1.33501438       1.37377239       0.00000000
Si       1.37378458      -1.35951454      -1.32035261       0.00000000
Si       1.35765748       1.31369077       1.38588010       0.00000000
Si      -1.35692443       1.33520986      -1.37639816       0.00000000
Si      -0.06812478       2.75908620       2.51128406       0.00000000
Si      -0.00058644      -2.72332964      -2.65173344       0.00000000
Si       2.72735328       0.01583388      -2.66296589       0.00000000
Si      -2.78376555       0.03295467       2.60578251       0.00000000
Si      -2.72481203      -2.68371236       0.03355147       0.00000000
Si       2.71034651       2.70094718       0.04320846       0.00000000
