10
Lattice="16.290000149 0.0 0.0 0.0 16.290000149 0.0 0.0 0.0 29.1751946751" Properties=species:S:1:pos:R:3:initial_magmoms:R:1 pbc="T T T"
Si       1.38531790      -1.31440753      -1.35842624       0.00000000
Si       1.37042884       1.36156708       1.32747136       0.00000000
Si      -1.35580042       1.37033110      -1.33911226       0.00000000
Si      -1.35632170      -1.35553978       1.35769686       0.00000000
Si       0.00674406      -2.67833666      -2.66334517       0.00000000
Si      -0.00860112       2.70870122       2.64881592       0.00000000
Si       0.02422323       2.68809437      -2.70276086       0.00000000
Si       2.71459820      -2.68113854       0.01756347       0.00000000
Si      -2.73473264       0.01081656       2.66938444       0.00000000
Si      -2.73496071      -2.69102657       0.01330389       0.00000000
