10
Lattice="16.290000149 0.0 0.0 0.0 16.290000149 0.0 0.0 0.0 29.1751946751" Properties=species:S:1:pos:R:3:initial_magmoms:R:1 pbc="T T T"
Si       0.07394031       1.07070913       1.06279399       0.00000000
H        1.16879448       1.80845066      -1.94811527       0.00000000
Si      -2.46544265      -1.38274408      -1.04438444       0.00000000
H       -1.21616254      -2.16503550       1.72486668       0.00000000
Si      -1.55760094       0.40161366       2.61526445       0.00000000
Si      -0.46838637      -2.27231167      -2.01661863       0.00000000
Si       2.26890054       1.26949600       1.71290485       0.00000000
Si      -0.35093547       3.20391723       0.16842840       0.00000000
Si      -3.09451359      -0.30819051       1.00015485       0.00000000
Si       2.29989553       0.83577475      -2.23091044       0.00000000
