10
Lattice="16.290000149 0.0 0.0 0.0 16.290000149 0.0 0.0 0.0 29.1751946751" Properties=species:S:1:pos:R:3:initial_magmoms:R:1 pbc="T T T"
Si       1.34995231       1.39485580      -1.31093194       0.00000000
Si      -1.32393718       1.35182566       1.38480062       0.00000000
Si      -1.33703434      -1.32481684      -1.40514156       0.00000000
Si       1.38476404      -1.35672895       1.33972494       0.00000000
Si       2.67019166      -0.09438426      -2.51993742       0.00000000
Si       0.02094894      -2.71832861       2.66938444       0.00000000
Si       2.71052570       2.67743420       0.09951659       0.00000000
Si      -0.03295467       2.71941842      -2.67670449       0.00000000
Si      -2.71143794      -0.00742824       2.68907769       0.00000000
Si      -2.69448005       2.71252123       0.07115830       0.00000000
