10
Lattice="16.290000149 0.0 0.0 0.0 16.290000149 0.0 0.0 0.0 29.1751946751" Properties=species:S:1:pos:R:3:initial_magmoms:R:1 pbc="T T T"
Si      -0.58179736       0.40233042      -2.15277926       0.00000000
Si       1.31077486      -1.92397934      -0.03028385       0.00000000
Si       1.02654694       1.96180472       0.89022272       0.00000000
Si      -2.09471483      -0.60618349       1.04534723       0.00000000
H        0.68344696      -1.23590602       2.42936011       0.00000000
H        0.15903927      -0.90132571       2.91655669       0.00000000
H        2.33794082       1.53008713       1.50885354       0.00000000
H        2.38374830      -1.75402577       1.18130363       0.00000000
H        2.93822733       1.39975084      -0.83934118       0.00000000
Si      -2.29514699       1.53575605       1.93303170       0.00000000
