10
Lattice="16.290000149 0.0 0.0 0.0 16.290000149 0.0 0.0 0.0 29.1751946751" Properties=species:S:1:pos:R:3:initial_magmoms:R:1 pbc="T T T"
H        1.20151783       0.36577566       0.88380417       0.00000000
Si       0.84180205       1.48486609      -1.63617409       0.00000000
Si      -0.77480454      -2.11284560       1.17418488       0.00000000
Si       0.53468667      -2.38296638      -0.73892016       0.00000000
Si      -2.19678797       1.42420213       1.03930796       0.00000000
H        2.59317254      -1.66592945       1.35192017       0.00000000
Si      -3.39464055      -0.17842437      -0.37029157       0.00000000
Si      -0.25917390      -1.20200653       3.26557954       0.00000000
H       -1.87491060      -1.57389094      -2.48683524       0.00000000
Si       1.26939826       3.30015855      -0.15357822       0.00000000
