10
Lattice="16.290000149 0.0 0.0 0.0 16.290000149 0.0 0.0 0.0 29.1751946751" Properties=species:S:1:pos:R:3:initial_magmoms:R:1 pbc="T T T"
Si       1.33869104      -1.35912358       1.36321097       0.00000000
Si      -1.35189571      -1.35277048      -1.36128541       0.00000000
Si      -1.32737926       1.34908894       1.39553709       0.00000000
Si       1.35874403       1.35184195      -1.36251077       0.00000000
Si       2.69066331       0.02741607       2.68452636       0.00000000
Si      -2.67058751       2.70712109       0.02695788       0.00000000
Si       0.03641630      -2.71379999      -2.68452636       0.00000000
Si      -2.69020067      -2.70993926       0.01948903       0.00000000
Si      -2.69728682       0.02800251      -2.71588970       0.00000000
Si       2.69880831       2.71482626       0.00271329       0.00000000
