10
Lattice="16.290000149 0.0 0.0 0.0 16.290000149 0.0 0.0 0.0 29.1751946751" Properties=species:S:1:pos:R:3:initial_magmoms:R:1 pbc="T T T"
H       -1.44832762       0.31565133       0.37615578       0.00000000
Si       0.42487578      -2.13320810       0.89436559       0.00000000
Si      -0.28983168       0.23076414      -2.35729738       0.00000000
Si       1.19785258       1.60262650       1.40959953       0.00000000
H        0.16505028       2.71875215      -1.00158443       0.00000000
H        1.51972995      -1.39546657      -2.11654367       0.00000000
H        0.35093547      -3.20391723      -0.16842840       0.00000000
Si      -1.74115667       2.09469854      -1.94414745       0.00000000
Si       3.39464055       0.17842437       0.37029157       0.00000000
Si      -0.80373232       2.97383727       1.51334652       0.00000000
