10
Lattice="16.290000149 0.0 0.0 0.0 16.290000149 0.0 0.0 0.0 29.1751946751" Properties=species:S:1:pos:R:3:initial_magmoms:R:1 pbc="T T T"
Si      -1.34620561       1.34473951      -1.36566169       0.00000000
Si      -1.35550720      -1.37070577       1.34634771       0.00000000
Si       1.35749458       1.34809525       1.36776230       0.00000000
Si       1.34364808      -1.30318372      -1.42409960       0.00000000
Si      -2.76825747      -0.11508885      -2.59096735       0.00000000
Si       0.11419290       2.78168271      -2.58041760       0.00000000
Si      -2.70019784       2.67392207       0.03568126       0.00000000
Si       2.69198768      -2.68791518      -0.06193894       0.00000000
Si       0.00729792      -2.71008587       2.71075486       0.00000000
Si      -2.71070489      -0.01791900       2.71224280       0.00000000
