10
Lattice="16.290000149 0.0 0.0 0.0 16.290000149 0.0 0.0 0.0 29.1751946751" Properties=species:S:1:pos:R:3:initial_magmoms:R:1 pbc="T T T"
Si       1.34006428       1.36298431       1.36522406       0.00000000
Si      -1.35097207       1.35920503      -1.35982665       0.00000000
Si      -1.35874403      -1.35184195       1.36251077       0.00000000
Si       1.36878355      -1.35363385      -1.35180347       0.00000000
Si      -2.68136937       2.70853832       0.03156756       0.00000000
Si       2.70769124       0.00589698       2.69269542       0.00000000
Si       0.00866628      -2.70803333      -2.70547415       0.00000000
Si      -2.71063973      -2.70461243       0.00122536       0.00000000
Si       2.70868493       2.70666497       0.02231902       0.00000000
Si       2.71700912      -2.71435385       0.01382904       0.00000000
