10
Lattice="16.290000149 0.0 0.0 0.0 16.290000149 0.0 0.0 0.0 29.1751946751" Properties=species:S:1:pos:R:3:initial_magmoms:R:1 pbc="T T T"
Si       1.80874388       1.32977715       0.60255530       0.00000000
Si      -0.73327807      -0.34332641       2.26110676       0.00000000
Si      -1.22390029       1.87001871      -0.94734775       0.00000000
Si       1.61688025      -1.52926449      -1.07860695       0.00000000
H        0.71602696      -2.51298502       0.99221920       0.00000000
H       -1.17406918      -2.94748819      -0.25426182       0.00000000
Si      -0.26893161      -2.87009440      -1.47229702       0.00000000
Si       0.47462544       2.87551897       1.75964352       0.00000000
Si      -1.46300491       1.84687062       2.66267414       0.00000000
Si      -1.16403454      -1.45074669      -3.05980689       0.00000000
