10
Lattice="16.290000149 0.0 0.0 0.0 16.290000149 0.0 0.0 0.0 29.1751946751" Properties=species:S:1:pos:R:3:initial_magmoms:R:1 pbc="T T T"
Si      -1.38855961      -1.35969373       1.31367149       0.00000000
Si      -1.36945144       1.34216569      -1.35329141       0.00000000
Si       1.35233065      -1.36956547      -1.35095739       0.00000000
Si       1.37704258       1.36604683       1.33581546       0.00000000
Si       2.77327479      -0.08255772       2.52966443       0.00000000
Si       0.00752598       2.69765660      -2.68560585       0.00000000
Si      -0.06897186      -2.80010442       2.59075729       0.00000000
Si      -2.68946273       2.71070489       0.03048808       0.00000000
Si      -2.67981905       0.00830790       2.72563421       0.00000000
Si       2.72740214      -0.02715543      -2.69319140       0.00000000
