10
Lattice="16.290000149 0.0 0.0 0.0 16.290000149 0.0 0.0 0.0 29.1751946751" Properties=species:S:1:pos:R:3:initial_magmoms:R:1 pbc="T T T"
Si       1.34583909      -1.36090571       1.35562542       0.00000000
Si      -1.31410828      -1.38393977      -1.36391118       0.00000000
Si      -1.37991777       1.34823535       1.34100865       0.00000000
Si       1.32453177       1.38369868      -1.36192726       0.00000000
Si      -2.63098978       0.05137377      -2.63985914       0.00000000
Si       2.68067428      -0.01146653      -2.65141252       0.00000000
Si      -0.00965671       2.71727954       2.66597094       0.00000000
Si       2.66371639      -2.73141600      -0.03349312       0.00000000
Si       2.70251917       0.00174629       2.70611601       0.00000000
Si      -0.02992147      -2.70900096       2.70634941       0.00000000
