10
Lattice="16.290000149 0.0 0.0 0.0 16.290000149 0.0 0.0 0.0 29.1751946751" Properties=species:S:1:pos:R:3:initial_magmoms:R:1 pbc="T T T"
Si      -1.34599384      -1.28922319      -1.42617104       0.00000000
Si      -1.38088702       1.01209771       1.60685302       0.00000000
Si       1.33478632       1.40898727      -1.33610722       0.00000000
Si       1.32162400      -1.37119447       1.42760063       0.00000000
H       -0.30791358       1.18205128       2.81844051       0.00000000
Si       2.49052925       0.26885016       2.78074615       0.00000000
Si       0.03881907      -2.64293849      -2.73914233       0.00000000
Si       2.71627607       0.04777857      -2.69030305       0.00000000
Si       2.80396515      -2.65043189       0.11993923       0.00000000
Si      -0.07078005      -3.20932551       2.14638990       0.00000000
