10
Lattice="16.290000149 0.0 0.0 0.0 16.290000149 0.0 0.0 0.0 29.1751946751" Properties=species:S:1:pos:R:3:initial_magmoms:R:1 pbc="T T T"
Si      -1.36177885       1.37044513       1.26109779       0.00000000
Si      -1.42115590      -1.30996036      -1.31265036       0.00000000
Si       1.33678999       1.44840907      -1.25558368       0.00000000
Si       1.29727045      -1.30238551       1.46173560       0.00000000
Si      -2.77669569       0.04362462       2.49920553       0.00000000
Si       2.68053581       0.08294868      -2.60610344       0.00000000
Si      -0.04269609      -2.65743659      -2.63370317       0.00000000
Si       2.67983534      -2.64660374       0.12568674       0.00000000
Si      -0.05087367       2.79106347      -2.60225231       0.00000000
Si      -2.78404248       0.08433333      -2.61646063       0.00000000
