10
Lattice="16.290000149 0.0 0.0 0.0 16.290000149 0.0 0.0 0.0 29.1751946751" Properties=species:S:1:pos:R:3:initial_magmoms:R:1 pbc="T T T"
H        0.44564553       1.28459683      -0.66595299       0.00000000
Si      -0.81712270       0.98445358       1.94487683       0.00000000
Si      -1.87839992      -0.71048836      -1.27177591       0.00000000
Si       2.01262952      -1.36174627      -0.08507487       0.00000000
H        0.97049305      -0.25775667      -2.47711990       0.00000000
H       -0.65169775      -2.68705181      -1.05824266       0.00000000
Si       3.17469949       0.69672331      -0.67867338       0.00000000
Si      -2.32598396       2.28780020       0.64970241       0.00000000
Si       0.79332301      -2.96306958      -1.49461605       0.00000000
Si       2.00072153       0.85279780      -2.69164511       0.00000000
