10
Lattice="16.290000149 0.0 0.0 0.0 16.290000149 0.0 0.0 0.0 29.1751946751" Properties=species:S:1:pos:R:3:initial_magmoms:R:1 pbc="T T T"
Si       1.62015454      -0.17664876      -1.67284731       0.00000000
Si      -0.45274797       2.28600993      -0.30070873       0.00000000
Si       0.25239726      -0.52154064       2.29981466       0.00000000
Si      -1.89449444      -1.30214116      -0.63619430       0.00000000
H        1.36032904      -2.20477007       1.51139178       0.00000000
H       -2.80906392      -0.50127588      -1.54847346       0.00000000
Si      -1.47926233       1.03342132       2.76012804       0.00000000
Si       0.06309117      -0.95356774      -3.27053932       0.00000000
Si      -2.33041484       2.27605837       1.05421648       0.00000000
Si      -0.84509263      -2.78850594      -2.09600434       0.00000000
