10
Lattice="16.290000149 0.0 0.0 0.0 16.290000149 0.0 0.0 0.0 29.1751946751" Properties=species:S:1:pos:R:3:initial_magmoms:R:1 pbc="T T T"
Si      -0.42124311       0.26049339      -2.28619159       0.00000000
Si       0.81531451       1.85951981       1.18155162       0.00000000
Si      -1.88923277      -0.81161668       1.17422281       0.00000000
Si       1.63869257      -1.73042156       0.08208441       0.00000000
Si       2.19019052       0.60013990       2.60246821       0.00000000
Si      -0.67046383      -2.18983214       2.62955446       0.00000000
Si      -2.11856339       1.91343971      -2.17628864       0.00000000
Si      -0.47638476      -2.03304089      -2.95768788       0.00000000
Si       1.72543682      -2.41825052      -2.15052694       0.00000000
Si       0.65647072      -3.51631382       1.24174297       0.00000000
