10
Lattice="16.290000149 0.0 0.0 0.0 16.290000149 0.0 0.0 0.0 29.1751946751" Properties=species:S:1:pos:R:3:initial_magmoms:R:1 pbc="T T T"
Si      -1.34314309       1.35780409      -1.36869591       0.00000000
Si       1.32694432      -1.34946361      -1.39579966       0.00000000
Si       1.34802846       1.37876932       1.35139502       0.00000000
Si      -1.34384356      -1.37174833       1.36309427       0.00000000
Si       2.66613545      -2.70778898      -0.03235529       0.00000000
Si      -2.68688891       2.72326448      -0.01817615       0.00000000
Si      -2.70940169      -2.71161713      -0.00907349       0.00000000
Si      -2.72640845      -0.02753010       2.69914314       0.00000000
Si       2.71862183       0.03683169       2.70856672       0.00000000
Si       2.70770753       2.72917776      -0.00230484       0.00000000
