10
Lattice="16.290000149 0.0 0.0 0.0 16.290000149 0.0 0.0 0.0 29.1751946751" Properties=species:S:1:pos:R:3:initial_magmoms:R:1 pbc="T T T"
Si      -1.33204960       1.36608593      -1.37240116       0.00000000
Si       1.37051518       1.37203341       1.33009713       0.00000000
Si       1.36932927      -1.33970590      -1.38024928       0.00000000
Si      -1.37811772      -1.32726034       1.38929360       0.00000000
Si      -2.63622701      -2.69498504      -0.06605264       0.00000000
Si       0.06059838      -2.67641444       2.67673659       0.00000000
Si      -0.02500515       2.70917363       2.67874967       0.00000000
Si      -2.70267392       2.70598079      -0.00694370       0.00000000
Si      -2.66453903       0.01156590      -2.75518868       0.00000000
Si       2.77643505       0.03416013       2.66314095       0.00000000
