10
Lattice="16.290000149 0.0 0.0 0.0 16.290000149 0.0 0.0 0.0 29.1751946751" Properties=species:S:1:pos:R:3:initial_magmoms:R:1 pbc="T T T"
Si      -0.90430678       0.90042976      -0.80856135       0.00000000
Si       0.90575659      -1.56006073       1.49292389       0.00000000
H       -2.02090484      -0.34417512       1.42229074       0.00000000
Si       1.93476332       0.58818304       1.88448417       0.00000000
Si       1.88079455      -1.96584790      -0.66005960       0.00000000
Si      -1.40141242      -1.64648244       1.86820442       0.00000000
Si      -2.21708531      -0.56842327      -2.08698920       0.00000000
Si       0.44329977       2.20841903      -2.20042236       0.00000000
Si      -2.04460679       2.32792247       0.65772559       0.00000000
Si       3.05647644       2.02740455       0.33353083       0.00000000
