10
Lattice="16.290000149 0.0 0.0 0.0 16.290000149 0.0 0.0 0.0 29.1751946751" Properties=species:S:1:pos:R:3:initial_magmoms:R:1 pbc="T T T"
Si      -1.37059337       1.34193763      -1.35717171       0.00000000
Si      -1.33088161      -1.39758427       1.34287586       0.00000000
Si       1.29829672      -1.35819505      -1.41785611       0.00000000
Si       1.35672895       1.38220651       1.35019883       0.00000000
Si       2.77632102       0.00866628       2.60190221       0.00000000
Si      -2.73277785      -0.07840377       2.65876467       0.00000000
Si       2.60879465      -2.78567148      -0.12145634       0.00000000
Si      -0.01091430       2.69234606      -2.71087156       0.00000000
Si      -2.70868536       2.70500339       0.01604636       0.00000000
Si       0.03935664      -2.63572202       2.78818583       0.00000000
