10
Lattice="16.290000149 0.0 0.0 0.0 16.290000149 0.0 0.0 0.0 29.1751946751" Properties=species:S:1:pos:R:3:initial_magmoms:R:1 pbc="T T T"
Si      -1.33967332       1.35894439       1.34148099       0.00000000
Si       1.39644397      -1.42913800       1.21844366       0.00000000
Si       1.37396377       1.22508946      -1.44948202       0.00000000
Si      -1.50084658      -1.28221849      -1.28618846       0.00000000
H        0.45939429       2.02595474      -2.36176118       0.00000000
Si       2.69992091       0.01658322       2.58958153       0.00000000
Si      -2.55762776       2.76977244      -0.10894018       0.00000000
Si      -2.66075975      -0.04329882       2.68335352       0.00000000
Si       2.42336558      -0.26127531      -2.90929206       0.00000000
Si       0.06936282      -2.80940601       2.59351434       0.00000000
