10
Lattice="16.290000149 0.0 0.0 0.0 16.290000149 0.0 0.0 0.0 29.1751946751" Properties=species:S:1:pos:R:3:initial_magmoms:R:1 pbc="T T T"
Si       1.41723001      -1.33177267      -1.30270162       0.00000000
Si       1.37290492       1.32633181       1.36408623       0.00000000
Si      -1.35226549      -1.37546245       1.34550163       0.00000000
Si      -1.35203743       1.31812165      -1.40761562       0.00000000
Si       0.10187766      -2.69034239      -2.64703040       0.00000000
Si       0.00395847       2.70625772       2.68566420       0.00000000
Si       2.75297745       2.64412766       0.00175051       0.00000000
Si      -2.72153774      -0.01150074       2.68181307       0.00000000
Si      -2.71515206       2.69232977      -0.05858379       0.00000000
Si       0.01475874       2.66766671      -2.75827250       0.00000000
