10
Lattice="16.290000149 0.0 0.0 0.0 16.290000149 0.0 0.0 0.0 29.1751946751" Properties=species:S:1:pos:R:3:initial_magmoms:R:1 pbc="T T T"
Si      -1.36910935      -1.34850250      -1.33817865       0.00000000
Si      -1.36402687       1.34724817       1.35154089       0.00000000
Si       1.32561505      -1.38225538       1.36102283       0.00000000
Si       1.38559548       1.33025770      -1.36901683       0.00000000
Si       0.07350048      -2.68021327      -2.62118702       0.00000000
Si       2.69552424      -0.01373247       2.68697708       0.00000000
Si      -0.00553860       2.71107956       2.68467224       0.00000000
Si      -2.69449634       2.71295291      -0.02392366       0.00000000
Si       0.05698242       2.74123235      -2.67918730       0.00000000
Si       2.71994458       2.70689303      -0.02202727       0.00000000
