10
Lattice="16.290000149 0.0 0.0 0.0 16.290000149 0.0 0.0 0.0 29.1751946751" Properties=species:S:1:pos:R:3:initial_magmoms:R:1 pbc="T T T"
Si       1.38525274       1.34513047       1.28161379       0.00000000
Si       1.25384131      -1.40309029      -1.37478185       0.00000000
Si      -1.32325300       1.26610768      -1.46296096       0.00000000
Si      -1.41459103      -1.40401882       1.25993662       0.00000000
Si      -2.18646011      -0.67000771      -2.49871538       0.00000000
Si      -0.48900951      -2.34268121      -2.62139358       0.00000000
Si      -0.04109967       2.70309746       2.55426495       0.00000000
Si       2.71386581      -0.06584418       2.59178425       0.00000000
Si       2.68257206       2.65321748      -0.19250960       0.00000000
Si       2.56634291      -0.09922239      -2.77601540       0.00000000
