10
Lattice="16.290000149 0.0 0.0 0.0 16.290000149 0.0 0.0 0.0 29.1751946751" Properties=species:S:1:pos:R:3:initial_magmoms:R:1 pbc="T T T"
Si       1.53966565      -1.26099262      -1.21021625       0.00000000
Si       1.39494529       1.32023935       1.36733926       0.00000000
Si      -1.21798702      -1.43441596       1.44226991       0.00000000
Si      -1.46997703       1.20609532      -1.45770943       0.00000000
H        0.34525026      -1.77147236      -2.26866314       0.00000000
Si      -2.67369401       2.67157631      -0.02465304       0.00000000
Si       2.85320688       2.50123178      -0.04866422       0.00000000
Si      -2.64916127      -0.06511113       2.72863342       0.00000000
Si      -0.13791114       2.53609238      -2.85721434       0.00000000
Si       0.06323778       2.75770155       2.68213983       0.00000000
