10
Lattice="16.290000149 0.0 0.0 0.0 16.290000149 0.0 0.0 0.0 29.1751946751" Properties=species:S:1:pos:R:3:initial_magmoms:R:1 pbc="T T T"
Si      -1.32867757       1.32158577       1.41487149       0.00000000
Si      -1.41690421      -1.37057545      -1.27897577       0.00000000
Si       1.32906853      -1.39432627       1.36885929       0.00000000
Si       1.34231230       1.36027024      -1.40357777       0.00000000
Si       0.02573820      -2.55814904      -2.63690078       0.00000000
Si       2.63609669       2.65068928       0.09781859       0.00000000
Si      -2.62012598       2.68192372       0.02073773       0.00000000
Si      -2.74084791      -0.07250679       2.67170095       0.00000000
Si       2.66605400      -0.07017732       2.77340568       0.00000000
Si       2.71205696      -2.75071314       0.04586924       0.00000000
