10
Lattice="16.290000149 0.0 0.0 0.0 16.290000149 0.0 0.0 0.0 29.1751946751" Properties=species:S:1:pos:R:3:initial_magmoms:R:1 pbc="T T T"
Si       1.31049793      -1.42747642       1.29639978       0.00000000
Si      -1.35078310      -1.38642562      -1.32306590       0.00000000
Si       1.37604889       1.33002964      -1.35512944       0.00000000
Si      -1.29829672       1.35819505       1.41785611       0.00000000
Si       2.66129732      -0.08482203       2.60832075       0.00000000
Si      -2.66889009       2.70013268       0.06068440       0.00000000
Si       0.00878031       2.68684004      -2.68306760       0.00000000
Si      -2.68997424      -0.02810025      -2.68651028       0.00000000
Si      -2.62917833      -0.03938922       2.76073197       0.00000000
Si       0.03692943      -2.73763227      -2.65695580       0.00000000
