10
Lattice="16.290000149 0.0 0.0 0.0 16.290000149 0.0 0.0 0.0 29.1751946751" Properties=species:S:1:pos:R:3:initial_magmoms:R:1 pbc="T T T"
Si      -1.33006222      -1.33950228       1.33195267       0.00000000
Si       1.49372785      -1.24111068      -1.27955402       0.00000000
Si      -1.25169103       1.37047771      -1.41328436       0.00000000
Si       1.42770448       1.43027830       1.22727207       0.00000000
Si       0.65583541       2.16428942      -2.53137993       0.00000000
H       -0.55874701      -0.46301067      -3.32814283       0.00000000
Si       2.35328600       0.49161591      -2.65405812       0.00000000
Si      -2.66261681       0.08117307       2.61309382       0.00000000
Si       0.10184508      -2.68674230       2.59430499       0.00000000
Si      -2.68986998      -2.62084482      -0.07827121       0.00000000
