10
Lattice="16.290000149 0.0 0.0 0.0 16.290000149 0.0 0.0 0.0 29.1751946751" Properties=species:S:1:pos:R:3:initial_magmoms:R:1 pbc="T T T"
Si      -1.30709332       1.42407181       1.30205685       0.00000000
Si       1.25985232       1.48509415      -1.32283250       0.00000000
Si       1.44770860      -1.42470712       1.21255027       0.00000000
Si      -1.36998901      -1.01146240      -1.64346789       0.00000000
Si       0.34365384      -1.46484568      -3.16402069       0.00000000
Si      -0.43391673       2.41771295      -2.62836411       0.00000000
Si       2.23381514       0.03618009      -2.83935912       0.00000000
Si      -2.23039424       0.82741798      -2.76055692       0.00000000
Si       2.41251644      -2.69179220      -0.54239604       0.00000000
Si      -2.61117299      -0.05235606       2.57980492       0.00000000
