10
Lattice="16.290000149 0.0 0.0 0.0 16.290000149 0.0 0.0 0.0 29.1751946751" Properties=species:S:1:pos:R:3:initial_magmoms:R:1 pbc="T T T"
Si       1.32206383       1.33938010       1.39968288       0.00000000
Si      -1.36297128       1.32659245      -1.39420086       0.00000000
Si       1.39665574      -1.39494529      -1.29834868       0.00000000
Si      -1.37354838      -1.36094806       1.36335976       0.00000000
Si       2.68009598       2.65572614       0.00501230       0.00000000
Si       0.13600521       2.55161675      -2.80463772       0.00000000
Si       0.01262475      -2.68407074      -2.69155934       0.00000000
Si       2.61542468      -2.77316076       0.15698297       0.00000000
Si       2.67397094      -0.02511918       2.75991798       0.00000000
Si      -2.75294487       2.68423364      -0.01031343       0.00000000
