10
Lattice="16.290000149 0.0 0.0 0.0 16.290000149 0.0 0.0 0.0 29.1751946751" Properties=species:S:1:pos:R:3:initial_magmoms:R:1 pbc="T T T"
Si       1.21723817      -1.28674385      -1.60481076       0.00000000
Si      -1.28860694       1.34521192      -1.50374788       0.00000000
Si      -1.43985959      -1.42380629       1.34308009       0.00000000
Si       1.31579919       1.70469965       1.13879537       0.00000000
H        2.82108317       0.23214879       0.51289992       0.00000000
H        0.17521410       2.67411755       1.40627356       0.00000000
H       -0.91660850       0.82469755       3.41860344       0.00000000
Si      -2.63033280      -2.57266588      -0.34835182       0.00000000
Si       3.44057558      -1.07015853       0.95881360       0.00000000
Si       2.59720969      -2.73377154      -0.44203337       0.00000000
