10
Lattice="16.290000149 0.0 0.0 0.0 16.290000149 0.0 0.0 0.0 29.1751946751" Properties=species:S:1:pos:R:3:initial_magmoms:R:1 pbc="T T T"
Si       1.37492488      -1.34616326       1.33657402       0.00000000
Si       1.36388026       1.34755117      -1.35063646       0.00000000
Si      -1.35202114      -1.36962086      -1.34932358       0.00000000
Si      -1.35040843       1.35002725       1.37222611       0.00000000
Si       0.02019960      -2.70142611       2.67046392       0.00000000
Si       0.00091224       2.71278350      -2.68726883       0.00000000
Si      -2.73458604      -0.01082145      -2.67183515       0.00000000
Si      -2.71977842       2.69414774       0.00828576       0.00000000
Si       2.72446994       2.69087345       0.01245781       0.00000000
Si       2.72657135      -0.01503241      -2.69581716       0.00000000
