10
Lattice="16.290000149 0.0 0.0 0.0 16.290000149 0.0 0.0 0.0 29.1751946751" Properties=species:S:1:pos:R:3:initial_magmoms:R:1 pbc="T T T"
H       -0.50181345      -1.11369844      -1.26690365       0.00000000
Si      -1.34017505       1.36423864       1.36452240       0.00000000
Si       1.54162371      -1.25162587       1.26678228       0.00000000
Si       0.65258066       1.80041969      -1.43617813       0.00000000
Si      -1.54650420      -2.23080149      -0.36466076       0.00000000
Si       0.12257899       0.82139068      -3.48970339       0.00000000
Si       0.21513552      -2.63596312       2.65043223       0.00000000
Si       0.16602768       2.75903733       2.56414076       0.00000000
Si      -0.51098635      -2.88233959      -2.40310244       0.00000000
H        2.15077198      -1.36107838      -2.81394753       0.00000000
