10
Lattice="16.290000149 0.0 0.0 0.0 16.290000149 0.0 0.0 0.0 29.1751946751" Properties=species:S:1:pos:R:3:initial_magmoms:R:1 pbc="T T T"
Si       1.44502075      -0.27601776      -0.43637339       0.00000000
Si      -1.98775469       0.10599903       1.06827893       0.00000000
Si      -1.22670217       1.97656346      -0.21353325       0.00000000
Si       0.65169775       2.68705181       1.05824266       0.00000000
Si       1.08370855      -0.03559365      -2.79539210       0.00000000
Si      -0.59336326       1.64502937      -2.54212224       0.00000000
Si       1.91363519      -2.39277296       0.47692691       0.00000000
Si      -0.95542480      -1.22761441       2.68522657       0.00000000
Si       2.66432726       1.32530554       0.97316779       0.00000000
H        1.62219079       2.42929514      -1.41887724       0.00000000
