10
Lattice="16.290000149 0.0 0.0 0.0 16.290000149 0.0 0.0 0.0 29.1751946751" Properties=species:S:1:pos:R:3:initial_magmoms:R:1 pbc="T T T"
Si      -1.35079939      -1.34265439      -1.31192098       0.00000000
Si       1.39646026      -1.28249542       1.35895139       0.00000000
Si       1.38375406       1.33564969      -1.34036679       0.00000000
Si      -1.18327303       1.45168336       1.41143757       0.00000000
Si       2.27486594       0.60616720       2.42865991       0.00000000
Si       0.67287475       2.38265687       2.51583539       0.00000000
Si      -2.66129732       0.08482203      -2.60832075       0.00000000
Si       0.08679312      -2.67740813      -2.59317883       0.00000000
Si       0.02215440      -2.60172479       2.71632733       0.00000000
Si      -2.72244998      -2.59498073       0.12142716       0.00000000
