10
Lattice="16.290000149 0.0 0.0 0.0 16.290000149 0.0 0.0 0.0 29.1751946751" Properties=species:S:1:pos:R:3:initial_magmoms:R:1 pbc="T T T"
Si      -0.84507634      -0.93346588      -0.81002010       0.00000000
H        1.43874910       0.91069246       0.54890211       0.00000000
H        0.80741386      -0.75178351       1.65227880       0.00000000
Si       2.08640693       1.73837108      -0.52620381       0.00000000
Si      -1.09297756       2.75113668      -0.06368945       0.00000000
Si      -0.80550793       1.86486293       2.17696550       0.00000000
Si      -2.13993587       0.35984610      -2.23727063       0.00000000
Si       0.58433860      -2.37767213      -1.93046428       0.00000000
Si      -2.67647960      -1.75865213       0.35380759       0.00000000
Si       1.99264169      -1.26128584       2.45363387       0.00000000
