10
Lattice="16.290000149 0.0 0.0 0.0 16.290000149 0.0 0.0 0.0 29.1751946751" Properties=species:S:1:pos:R:3:initial_magmoms:R:1 pbc="T T T"
Si       1.82834075       1.01892322      -0.95013398       0.00000000
Si       1.40727682      -1.36523233       1.25104985       0.00000000
Si      -1.31761666       1.49189151       1.20574661       0.00000000
Si      -1.30052845      -1.18278433      -1.55549330       0.00000000
Si       0.97718824       2.26156027      -2.65604554       0.00000000
Si      -2.66761784       0.09550827       2.51391566       0.00000000
Si      -2.62161488      -2.58502754      -0.21362078       0.00000000
Si       0.05222574      -2.70526403       2.56549740       0.00000000
Si       2.73906579      -2.52514550      -0.30739277       0.00000000
Si       2.82548424       0.09466119       2.47975151       0.00000000
