10
Lattice="16.290000149 0.0 0.0 0.0 16.290000149 0.0 0.0 0.0 29.1751946751" Properties=species:S:1:pos:R:3:initial_magmoms:R:1 pbc="T T T"
Si      -1.33434910      -1.37663533      -1.34698956       0.00000000
Si       1.34320499      -1.35571897       1.36507818       0.00000000
Si       1.33199747       1.35715249      -1.38267083       0.00000000
Si      -1.38652662       1.35982405       1.32662528       0.00000000
Si      -2.66296216       0.03433932      -2.65716003       0.00000000
Si      -0.03532649       2.71565705       2.68592677       0.00000000
Si       2.69084413       2.71311581      -0.02821241       0.00000000
Si       2.69157718       0.00612504       2.71548124       0.00000000
Si       2.70045523      -2.71130762       0.01006544       0.00000000
Si      -2.71994458      -2.70689303       0.02202727       0.00000000
