10
Lattice="16.290000149 0.0 0.0 0.0 16.290000149 0.0 0.0 0.0 29.1751946751" Properties=species:S:1:pos:R:3:initial_magmoms:R:1 pbc="T T T"
Si       0.80205445       1.93471282      -1.02600407       0.00000000
Si      -1.62015454       0.17664876       1.67284731       0.00000000
Si       1.78513967      -1.14872194       1.02399098       0.00000000
Si      -1.55706337      -0.77691898      -1.59769201       0.00000000
H       -0.24405678       3.04782971      -0.98323324       0.00000000
Si      -2.07290252       2.46265869       1.37213858       0.00000000
Si       0.63617338      -2.78384700       2.21253006       0.00000000
Si      -2.46524717      -2.61185717      -0.42315702       0.00000000
Si       1.12554127       1.20684466      -3.22345056       0.00000000
Si      -0.39902355      -0.64136989      -3.65162572       0.00000000
