10
Lattice="16.290000149 0.0 0.0 0.0 16.290000149 0.0 0.0 0.0 29.1751946751" Properties=species:S:1:pos:R:3:initial_magmoms:R:1 pbc="T T T"
Si       1.41491683       1.32682051      -1.23810774       0.00000000
Si      -1.42765561      -1.38901573      -1.17794849       0.00000000
Si       1.29485953      -1.29331198       1.42725052       0.00000000
Si      -1.08212842       1.42092784       1.49709594       0.00000000
H        2.13993587      -0.35984610       2.23727063       0.00000000
Si      -0.53654373      -2.11849823       2.59107821       0.00000000
Si       1.04695831       2.39129057       2.17358118       0.00000000
Si      -2.13853493      -0.34200855       2.67825370       0.00000000
Si       2.64865628       2.46291770       0.38578360       0.00000000
Si       0.00646713      -2.71147052      -2.45932304       0.00000000
