10
Lattice="16.290000149 0.0 0.0 0.0 16.290000149 0.0 0.0 0.0 29.1751946751" Properties=species:S:1:pos:R:3:initial_magmoms:R:1 pbc="T T T"
Si      -1.37023825       1.23813775      -1.44530997       0.00000000
Si       1.19778742      -1.40227579      -1.47629403       0.00000000
Si      -1.36634983      -1.42972444       1.29949235       0.00000000
Si       1.43571916       1.41059998       1.31658901       0.00000000
Si      -0.06437808       2.74877463       2.56867166       0.00000000
Si       2.55366929      -2.76032424      -0.17376746       0.00000000
Si       0.06576273      -2.64082079       2.68438049       0.00000000
Si      -2.77213449       2.55731825      -0.12942116       0.00000000
Si       2.73696438       2.64438830      -0.18628362       0.00000000
Si      -0.03935664       2.63572202      -2.78818583       0.00000000
