10
Lattice="16.290000149 0.0 0.0 0.0 16.290000149 0.0 0.0 0.0 29.1751946751" Properties=species:S:1:pos:R:3:initial_magmoms:R:1 pbc="T T T"
Si      -1.34377840      -1.34683604      -1.38792236       0.00000000
Si       1.30776121       1.34650372      -1.42354527       0.00000000
Si       1.42563565      -1.36423376       1.29596215       0.00000000
Si      -1.41828886       1.35469759       1.33747845       0.00000000
Si       0.07690509      -2.65106232       2.66833413       0.00000000
Si      -2.68054396      -2.69675577      -0.01744677       0.00000000
Si       2.60117093       2.78404736      -0.11156594       0.00000000
Si       2.67959099      -0.04272704       2.76440805       0.00000000
Si      -0.10551033       2.82355061       2.61590630       0.00000000
Si       2.73292446      -0.01589415      -2.72195814       0.00000000
