10
Lattice="16.290000149 0.0 0.0 0.0 16.290000149 0.0 0.0 0.0 29.1751946751" Properties=species:S:1:pos:R:3:initial_magmoms:R:1 pbc="T T T"
Si       1.41959206      -1.37354023       1.25170338       0.00000000
Si       1.37596744       1.31994613      -1.36361942       0.00000000
Si      -1.33809319       1.33198444       1.40837417       0.00000000
Si      -1.35672895      -1.38220651      -1.35019883       0.00000000
Si       0.11834685      -2.60732855       2.75457601       0.00000000
Si      -2.68634320       2.68345172       0.02272748       0.00000000
Si       0.00167787       2.67164147      -2.70847920       0.00000000
Si      -2.80053447      -0.04924467       2.62725546       0.00000000
Si       2.78493843       2.64528425      -0.00746885       0.00000000
Si      -2.72732232      -0.04026888      -2.70737054       0.00000000
