10
Lattice="16.290000149 0.0 0.0 0.0 16.290000149 0.0 0.0 0.0 29.1751946751" Properties=species:S:1:pos:R:3:initial_magmoms:R:1 pbc="T T T"
Si      -0.97585246       1.85981303      -0.89871270       0.00000000
Si      -1.76777453      -1.48261807       0.32877527       0.00000000
Si       0.39048759       0.63785125       2.22355829       0.00000000
Si       1.75260854      -0.97169851      -1.26637850       0.00000000
H       -0.39614022      -1.22885245      -2.57876628       0.00000000
Si       1.88678927      -1.22688136       2.57724917       0.00000000
Si       2.49303791      -2.29633616       0.52626216       0.00000000
Si      -2.46405800       0.84835063      -2.36873406       0.00000000
Si      -1.07346214      -3.52701961      -0.44646800       0.00000000
Si      -3.58577112      -0.59087089      -0.81778071       0.00000000
