10
Lattice="16.290000149 0.0 0.0 0.0 16.290000149 0.0 0.0 0.0 29.1751946751" Properties=species:S:1:pos:R:3:initial_magmoms:R:1 pbc="T T T"
Si       1.38298843      -1.35638686      -1.32299005       0.00000000
Si       1.33698547       1.32414895       1.40454639       0.00000000
Si      -1.35275419      -1.39649284       1.32104698       0.00000000
Si      -1.32906853       1.39432627      -1.36885929       0.00000000
Si      -0.02404404      -2.65632887      -2.66764268       0.00000000
Si       2.70407486       0.04585635      -2.66486257       0.00000000
Si      -2.65774610       2.71591205       0.04601220       0.00000000
Si      -2.70544322      -0.02616174       2.67696415       0.00000000
Si      -2.74597275       0.02375082      -2.64783505       0.00000000
Si       2.68698665       2.72053220       0.09637734       0.00000000
