10
Lattice="16.290000149 0.0 0.0 0.0 16.290000149 0.0 0.0 0.0 29.1751946751" Properties=species:S:1:pos:R:3:initial_magmoms:R:1 pbc="T T T"
Si       1.41346702      -1.17412652      -1.48221659       0.00000000
Si      -1.29902326      -1.45830557       1.32694620       0.00000000
Si      -1.87180735       1.11710761      -0.96759533       0.00000000
Si       1.47403324       1.42579986       1.25170338       0.00000000
H        0.78995098       2.63836882      -1.37844042       0.00000000
Si      -0.46449306       2.55348163      -2.24313484       0.00000000
H       -1.86263446       2.88574877       0.16860345       0.00000000
Si      -2.90732520       1.76864572       1.07084635       0.00000000
Si      -2.48176931       0.05579292       2.67702834       0.00000000
Si      -0.11189601      -2.49690711      -2.67848710       0.00000000
