10
Lattice="16.290000149 0.0 0.0 0.0 16.290000149 0.0 0.0 0.0 29.1751946751" Properties=species:S:1:pos:R:3:initial_magmoms:R:1 pbc="T T T"
Si      -1.36039420      -1.36243045       1.34325514       0.00000000
Si       1.35454609       1.35270532       1.36105201       0.00000000
Si       1.36894645      -1.37992591      -1.32157797       0.00000000
Si      -1.38466630       1.33726240      -1.34987791       0.00000000
Si      -0.02124216       2.69866658      -2.67909978       0.00000000
Si       2.71743266      -0.04158837       2.66486228       0.00000000
Si      -0.00395847      -2.70625772      -2.68566420       0.00000000
Si      -2.73476523       0.00218286       2.67568628       0.00000000
Si      -0.00894321      -2.73888660       2.68446801       0.00000000
Si       2.72888454       2.69566922       0.01972243       0.00000000
