10
Lattice="16.290000149 0.0 0.0 0.0 16.290000149 0.0 0.0 0.0 29.1751946751" Properties=species:S:1:pos:R:3:initial_magmoms:R:1 pbc="T T T"
Si      -1.40189624       1.31918050       1.31588881       0.00000000
Si       1.37023825      -1.23813775       1.44530997       0.00000000
Si       1.33088161       1.39758427      -1.34287586       0.00000000
Si      -1.39132403      -1.37578825      -1.31227108       0.00000000
Si       2.56802567      -2.64041354      -0.03098406       0.00000000
Si      -0.11292391       2.73054611       2.63457843       0.00000000
Si       2.62917833       0.03938922      -2.76073197       0.00000000
Si       0.00388842      -2.66786219       2.74480231       0.00000000
Si      -2.72519811       2.69083109      -0.02112284       0.00000000
Si      -2.73158379      -0.01099575      -2.68834831       0.00000000
