10
Lattice="16.290000149 0.0 0.0 0.0 16.290000149 0.0 0.0 0.0 29.1751946751" Properties=species:S:1:pos:R:3:initial_magmoms:R:1 pbc="T T T"
Si       1.33509583       1.36394542      -1.36919189       0.00000000
Si      -1.36251190      -1.34252407      -1.37668991       0.00000000
Si      -1.42516324       1.36239787       1.29841286       0.00000000
Si       1.40098888      -1.34100910       1.35973912       0.00000000
Si       0.05781321      -2.71902908       2.67431504       0.00000000
Si       2.70570386      -2.68750793      -0.07095407       0.00000000
Si       2.69604389       2.71000442      -0.00239237       0.00000000
Si      -0.13175352       2.79994152       2.61039219       0.00000000
Si      -2.72544734      -2.69267186      -0.02669530       0.00000000
Si       2.63073728       0.09383692       2.78415965       0.00000000
