10
Lattice="16.290000149 0.0 0.0 0.0 16.290000149 0.0 0.0 0.0 29.1751946751" Properties=species:S:1:pos:R:3:initial_magmoms:R:1 pbc="T T T"
Si      -1.66844462      -0.79664617       1.44192565       0.00000000
Si       1.10975952       1.69310117       1.25940563       0.00000000
Si      -0.51626920       0.65423899      -2.23502414       0.00000000
Si       1.45625434      -1.89921854      -0.01934315       0.00000000
H       -2.86286001      -1.30712590       0.38347876       0.00000000
Si       2.46867785       0.28442340       2.57053888       0.00000000
Si       0.92625267      -2.87824755      -2.07286841       0.00000000
Si      -0.53650138      -2.33539958       2.78135738       0.00000000
Si       3.49999776      -0.93708226       0.72631647       0.00000000
Si       1.68144730      -0.75452023      -3.27412787       0.00000000
