10
Lattice="16.290000149 0.0 0.0 0.0 16.290000149 0.0 0.0 0.0 29.1751946751" Properties=species:S:1:pos:R:3:initial_magmoms:R:1 pbc="T T T"
H       -1.19441539      -0.51047973      -1.05844689       0.00000000
Si      -1.53966565       1.26099262       1.21021625       0.00000000
Si       1.13194324      -1.53875341       1.33943173       0.00000000
Si       1.66844462       0.79664617      -1.44192565       0.00000000
Si      -2.46757664      -1.10203480      -1.96489101       0.00000000
Si       3.12469896      -1.10257237      -1.46126880       0.00000000
Si      -0.14472036       2.58123197       2.57755551       0.00000000
Si       2.63814598      -0.14395473       2.53905009       0.00000000
Si       2.77820414       2.48974733      -0.18252002       0.00000000
Si       2.47211829      -2.90299206      -0.02509067       0.00000000
