10
Lattice="16.290000149 0.0 0.0 0.0 16.290000149 0.0 0.0 0.0 29.1751946751" Properties=species:S:1:pos:R:3:initial_magmoms:R:1 pbc="T T T"
Si       0.97585246      -1.85981303       0.89871270       0.00000000
Si      -1.48820554      -1.01146240      -1.47002136       0.00000000
Si      -1.60796962       0.79343704       1.52099042       0.00000000
Si       1.65794735       1.52490691      -0.73428130       0.00000000
H        0.90619642       2.07982577       1.76626629       0.00000000
H        0.25518285       2.50251869       1.71964432       0.00000000
H       -0.88873354       0.86793121       2.84633199       0.00000000
Si      -1.95333392       2.74383876       0.14952287       0.00000000
Si       0.17159886       3.32596191      -0.85194486       0.00000000
Si      -0.06011010      -2.24068952      -2.75708507       0.00000000
