10
Lattice="16.290000149 0.0 0.0 0.0 16.290000149 0.0 0.0 0.0 29.1751946751" Properties=species:S:1:pos:R:3:initial_magmoms:R:1 pbc="T T T"
Si      -1.37647243      -1.36436896      -1.30672779       0.00000000
Si      -1.38417760       1.31525461       1.35906809       0.00000000
Si       1.33046947      -1.36570474       1.37546455       0.00000000
Si       1.32512635       1.38624643      -1.38261248       0.00000000
Si      -2.69682581       0.02751381      -2.64484810       0.00000000
Si      -0.01420488       2.67647960       2.68732718       0.00000000
Si       2.68895774      -0.00187335       2.70859590       0.00000000
Si      -0.04836501      -2.72086985      -2.67694081       0.00000000
Si       2.69449634      -2.71295291       0.02392366       0.00000000
Si       2.75147877       0.02827944      -2.65526364       0.00000000
