10
Lattice="16.290000149 0.0 0.0 0.0 16.290000149 0.0 0.0 0.0 29.1751946751" Properties=species:S:1:pos:R:3:initial_magmoms:R:1 pbc="T T T"
Si      -0.08674425       0.68782897       2.23261135       0.00000000
Si       0.71506585      -2.19602723      -0.39949594       0.00000000
Si       1.94649212       1.01758744      -0.90128011       0.00000000
Si      -2.20182158       0.38520963      -0.80716094       0.00000000
H        2.44211537      -0.26471250       1.50981632       0.00000000
Si       2.60579729      -1.65287790       0.89789579       0.00000000
Si      -2.14667993       2.67874391      -0.13566466       0.00000000
Si       1.44436915      -1.85520784      -2.66404538       0.00000000
Si       1.02095947       2.06565347      -2.73359904       0.00000000
Si       0.23812722       0.02427210      -3.61433982       0.00000000
