10
Lattice="16.290000149 0.0 0.0 0.0 16.290000149 0.0 0.0 0.0 29.1751946751" Properties=species:S:1:pos:R:3:initial_magmoms:R:1 pbc="T T T"
Si      -1.37611405      -1.35606106       1.33149753       0.00000000
Si      -1.38256489       1.35879941      -1.32251157       0.00000000
Si       1.35202114       1.36962086       1.34932358       0.00000000
Si       1.34905636      -1.37875303      -1.34661029       0.00000000
Si      -0.00560376      -2.69759144       2.68423461       0.00000000
Si      -0.03681540       2.73331542      -2.66098198       0.00000000
Si      -2.73758340      -0.01282023      -2.66071940       0.00000000
Si       2.72764649      -0.03459996      -2.67977081       0.00000000
Si      -2.69599502       0.01317861       2.71405166       0.00000000
Si       2.72694602       0.02345760       2.68589760       0.00000000
