10
Lattice="16.290000149 0.0 0.0 0.0 16.290000149 0.0 0.0 0.0 29.1751946751" Properties=species:S:1:pos:R:3:initial_magmoms:R:1 pbc="T T T"
Si       1.31250160       1.30386790      -1.40123354       0.00000000
Si      -1.25384131       1.40309029       1.37478185       0.00000000
Si      -1.74285083      -0.93959092      -1.24661172       0.00000000
Si       1.44274144      -1.38316762       1.23668690       0.00000000
Si      -3.44030142       0.73308259      -1.12393353       0.00000000
Si      -2.57709431       2.66919797      -0.08817911       0.00000000
Si      -2.60240897      -2.67231751       0.12789238       0.00000000
Si      -2.66843234      -0.00092853       2.63471847       0.00000000
Si       2.80812724       0.01112607       2.55594544       0.00000000
Si       0.14792949      -2.67322486       2.71439593       0.00000000
