10
Lattice="16.290000149 0.0 0.0 0.0 16.290000149 0.0 0.0 0.0 29.1751946751" Properties=species:S:1:pos:R:3:initial_magmoms:R:1 pbc="T T T"
Si       0.50181345       1.11369844       1.26690365       0.00000000
Si      -1.04469074      -1.11710305       0.90224290       0.00000000
Si      -0.00917290      -1.76864115      -1.13619878       0.00000000
Si       1.39814139      -0.33226713      -2.41173829       0.00000000
Si       0.62439245       1.93508912      -2.22279973       0.00000000
H        2.65258543      -0.24737994      -1.54704387       0.00000000
Si       1.15439412       2.91411813      -0.16927448       0.00000000
Si       2.04343717      -0.13792743       2.53368594       0.00000000
Si      -3.20767696      -0.39732939       0.59421119       0.00000000
Si       1.86263446      -2.88574877      -0.16860345       0.00000000
