10
Lattice="16.290000149 0.0 0.0 0.0 16.290000149 0.0 0.0 0.0 29.1751946751" Properties=species:S:1:pos:R:3:initial_magmoms:R:1 pbc="T T T"
Si       1.34503110       1.34975683      -1.36881261       0.00000000
Si       1.35125388      -1.35953083       1.35889304       0.00000000
Si      -1.33052808       1.34970796       1.39063565       0.00000000
Si      -1.36344206      -1.33944526      -1.37158425       0.00000000
Si       2.67636395       2.69325830       0.04618433       0.00000000
Si      -2.70679692      -2.68912064       0.01035719       0.00000000
Si      -2.69887998       2.70651836       0.04986041       0.00000000
Si       2.69126930       0.00298107       2.72435050       0.00000000
Si       2.69772014      -0.02057427      -2.72472978       0.00000000
Si      -2.67757266      -0.00469152       2.74801159       0.00000000
