10
Lattice="16.290000149 0.0 0.0 0.0 16.290000149 0.0 0.0 0.0 29.1751946751" Properties=species:S:1:pos:R:3:initial_magmoms:R:1 pbc="T T T"
Si       1.35000118       1.39638324      -1.30816905       0.00000000
Si      -1.32351364       1.35226549       1.38345856       0.00000000
Si      -1.33698547      -1.32414895      -1.40454639       0.00000000
Si       1.38460114      -1.35741313       1.33873298       0.00000000
Si       2.66761784      -0.09550827      -2.51391566       0.00000000
Si       0.02117700      -2.71881731       2.66795485       0.00000000
Si       2.70980894       2.67772579       0.10205483       0.00000000
Si      -0.02995731       2.72086660      -2.67558708       0.00000000
Si      -2.71109585      -0.00680922       2.68741471       0.00000000
Si      -2.69162930       2.71427892       0.06850336       0.00000000
