10
Lattice="16.290000149 0.0 0.0 0.0 16.290000149 0.0 0.0 0.0 29.1751946751" Properties=species:S:1:pos:R:3:initial_magmoms:R:1 pbc="T T T"
H        1.20288619       0.38090907       0.88009892       0.00000000
Si       0.85014253       1.48615300      -1.63354833       0.00000000
Si       0.53551746      -2.37436526      -0.72293215       0.00000000
Si      -0.75519463      -2.12372732       1.20125947       0.00000000
Si      -2.19771650       1.40875921       1.03910373       0.00000000
H        2.61576677      -1.65291374       1.35521697       0.00000000
Si      -3.41702301      -0.19256409      -0.37043745       0.00000000
Si      -0.22519296      -1.14469831       3.25478472       0.00000000
H       -1.89677341      -1.57558510      -2.48412195       0.00000000
Si       1.27899307       3.30209706      -0.14911442       0.00000000
