10
Lattice="16.290000149 0.0 0.0 0.0 16.290000149 0.0 0.0 0.0 29.1751946751" Properties=species:S:1:pos:R:3:initial_magmoms:R:1 pbc="T T T"
Si       1.33919114      -1.35832537       1.36344437       0.00000000
Si      -1.35120013      -1.35583300      -1.35930150       0.00000000
Si      -1.32694432       1.34946361       1.39579966       0.00000000
Si       1.35873914       1.35242839      -1.36201479       0.00000000
Si       2.68997424       0.02810025       2.68651028       0.00000000
Si      -2.67008741       2.70726770       0.02710376       0.00000000
Si      -2.69015669      -2.71147052       0.02077274       0.00000000
Si       0.03532649      -2.71565705      -2.68592677       0.00000000
Si      -2.69931167       0.02283858      -2.71055064       0.00000000
Si       2.69875455       2.71494029       0.00344267       0.00000000
