10
Lattice="16.290000149 0.0 0.0 0.0 16.290000149 0.0 0.0 0.0 29.1751946751" Properties=species:S:1:pos:R:3:initial_magmoms:R:1 pbc="T T T"
Si       1.30455208      -1.37979559       1.37505610       0.00000000
Si      -1.37311669      -1.38298843      -1.31063727       0.00000000
Si      -1.32287833       1.37163430       1.37313054       0.00000000
Si       1.35379675       1.34789977      -1.37321806       0.00000000
Si      -2.68301189       2.69638598      -0.01835120       0.00000000
Si       2.68366512      -0.01804932       2.70877095       0.00000000
Si      -0.00249237      -2.72288330      -2.67609473       0.00000000
Si      -2.69733080      -0.01907559      -2.70354859       0.00000000
Si       2.69624752       2.70959717      -0.01969326       0.00000000
Si      -2.66263310       0.02264310       2.74518159       0.00000000
