10
Lattice="16.290000149 0.0 0.0 0.0 16.290000149 0.0 0.0 0.0 29.1751946751" Properties=species:S:1:pos:R:3:initial_magmoms:R:1 pbc="T T T"
Si       1.35428219       1.45174852      -1.23479285       0.00000000
Si       1.38557528      -1.33692031       1.37238949       0.00000000
Si      -1.36101648       1.43796718       1.30466511       0.00000000
Si      -1.22265215      -1.48457287      -1.39886889       0.00000000
Si      -2.68091374      -2.66556530       0.01713459       0.00000000
Si      -0.00227734       2.68245803      -2.69407249       0.00000000
Si      -2.66667628       0.09273897       2.73230950       0.00000000
Si       2.79692461       0.26417493      -2.59271786       0.00000000
Si       0.03933383      -2.67084326       2.74818080       0.00000000
Si       0.03033850       2.74981719       2.71588386       0.00000000
