10
Lattice="16.290000149 0.0 0.0 0.0 16.290000149 0.0 0.0 0.0 29.1751946751" Properties=species:S:1:pos:R:3:initial_magmoms:R:1 pbc="T T T"
Si      -1.47205238       1.20458035       1.33584464       0.00000000
Si       1.18504212       1.53166726      -1.30821573       0.00000000
Si      -0.22175577      -1.84963178      -1.43967916       0.00000000
Si       1.43207998      -1.18302868       1.45426675       0.00000000
H       -2.95080972      -1.26175825      -1.42695877       0.00000000
Si       2.09288383      -2.01476351      -2.03429880       0.00000000
Si      -2.62101867      -0.43054470       2.52438372       0.00000000
Si       2.56864958       0.19678320      -2.63300297       0.00000000
Si       3.15310220      -1.93717424       0.07407582       0.00000000
Si      -0.00208512       2.57026880       2.69721757       0.00000000
