10
Lattice="16.290000149 0.0 0.0 0.0 16.290000149 0.0 0.0 0.0 29.1751946751" Properties=species:S:1:pos:R:3:initial_magmoms:R:1 pbc="T T T"
Si       1.40006035       1.41545277       1.25946398       0.00000000
Si      -1.26231211       1.39084021      -1.43089742       0.00000000
Si       1.42864930      -1.28330992      -1.41158344       0.00000000
Si      -1.29428938      -1.59290137       1.27364312       0.00000000
Si      -2.52802883      -2.72899857      -0.35024821       0.00000000
Si       0.28339713      -2.67729410       2.59892634       0.00000000
Si      -2.58559769       2.78632308      -0.06754058       0.00000000
Si       2.86913020       0.12363165       2.53322380       0.00000000
Si      -2.56966607       0.07680735      -2.87661584       0.00000000
Si       2.86736540      -2.63246402      -0.12414045       0.00000000
