10
Lattice="16.290000149 0.0 0.0 0.0 16.290000149 0.0 0.0 0.0 29.1751946751" Properties=species:S:1:pos:R:3:initial_magmoms:R:1 pbc="T T T"
Si       1.32023935      -1.44096454       1.27521858       0.00000000
Si      -1.34876314      -1.36176256      -1.34786482       0.00000000
Si       1.38862477       1.35962857      -1.31297129       0.00000000
Si      -1.29041236       1.36855549       1.41170014       0.00000000
Si       2.74789497      -0.05194881       2.45316707       0.00000000
Si       0.01811448       2.70115895      -2.66570836       0.00000000
Si      -2.66470193       2.72025083       0.06684037       0.00000000
Si      -2.71603172      -0.00495216      -2.67580298       0.00000000
Si      -0.06351471      -2.77661424       2.61558538       0.00000000
Si       2.74054818      -0.01124010      -2.66249909       0.00000000
