10
Lattice="16.290000149 0.0 0.0 0.0 16.290000149 0.0 0.0 0.0 29.1751946751" Properties=species:S:1:pos:R:3:initial_magmoms:R:1 pbc="T T T"
Si      -1.22116357       1.32825403      -1.51515539       0.00000000
Si       1.33678999       1.45116208       1.29508689       0.00000000
Si      -1.61345935      -1.01869516       1.40166388       0.00000000
Si       1.78437404      -1.54712647      -0.62639143       0.00000000
H       -0.84701485      -1.73913671      -1.75538394       0.00000000
H       -0.19600128      -2.16182963      -1.70876198       0.00000000
H        1.35303112       0.62343460      -2.84694467       0.00000000
Si      -0.04839759      -2.30650112       2.52181630       0.00000000
Si       0.03943809       1.08175375      -3.45157141       0.00000000
Si       1.02332152      -3.41769090       0.65542075       0.00000000
