10
Lattice="16.290000149 0.0 0.0 0.0 16.290000149 0.0 0.0 0.0 29.1751946751" Properties=species:S:1:pos:R:3:initial_magmoms:R:1 pbc="T T T"
Si       1.36990919       1.36852291       1.32595425       0.00000000
Si       1.37967016      -1.34793398      -1.34130040       0.00000000
Si      -1.32561505       1.38225538      -1.36102283       0.00000000
Si      -1.35065278      -1.35139561       1.37415167       0.00000000
Si      -2.68314221      -2.70591563      -0.00863586       0.00000000
Si      -2.69472440       0.03375288      -2.69920149       0.00000000
Si       0.00563634       2.71938746       2.67702834       0.00000000
Si       2.69848739       0.00858483       2.70045602       0.00000000
Si       2.70264134       0.03587058      -2.70477395       0.00000000
Si      -2.68964192       2.72950355      -0.00948194       0.00000000
