10
Lattice="10.86 0.0 0.0 0.0 10.86 0.0 0.0 0.0 10.86" Properties=species:S:1:pos:R:3:initial_magmoms:R:1 pbc="T T T"
Si       1.31611254       1.29429480       1.36282140       0.00000000
Si      -1.39888746       1.29429480      -1.35217860       0.00000000
Si       1.31611254      -1.42070520      -1.35217860       0.00000000
Si      -1.51649040      -1.39717158       1.20649170       0.00000000
Si       2.67361254       2.65179480       0.00532140       0.00000000
Si      -0.04138746       2.65179480      -2.70967860       0.00000000
Si      -0.04138746       2.65179480       2.72032140       0.00000000
Si       2.67361254      -0.06320520      -2.70967860       0.00000000
Si      -2.75638746       2.65179480       0.00532140       0.00000000
Si       2.62515522      -2.82819378       0.12950550       0.00000000
