10
Lattice="10.86 0.0 0.0 0.0 10.86 0.0 0.0 0.0 10.86" Properties=species:S:1:pos:R:3:initial_magmoms:R:1 pbc="T T T"
Si      -1.14240684      -1.30800012       1.51062600       0.00000000
Si      -1.21187826       1.44321798      -1.42434330       0.00000000
Si      -2.45528310       2.70778896       0.13040688       0.00000000
Si      -2.52137706       0.11755950      -2.69967654       0.00000000
Si      -2.51109264       0.05797068       2.83301562       0.00000000
Si       0.31025934      -2.76786648      -2.64613674       0.00000000
Si       2.92976736       0.01219578      -2.50132950       0.00000000
Si       0.30461214       2.84038956      -2.63083500       0.00000000
Si       0.22151142      -2.66195976       2.83825014       0.00000000
Si       2.93338374       0.15091056       2.70119694       0.00000000
