10
Lattice="10.86 0.0 0.0 0.0 10.86 0.0 0.0 0.0 10.86" Properties=species:S:1:pos:R:3:initial_magmoms:R:1 pbc="T T T"
Si       1.31046534      -1.24244916      -1.33687686       0.00000000
Si      -1.40453466      -1.24244916       1.37812314       0.00000000
Si      -1.40453466       1.47255084      -1.33687686       0.00000000
Si       2.66796534      -2.59994916       0.02062314       0.00000000
Si      -0.04703466      -2.59994916      -2.69437686       0.00000000
Si      -0.04703466      -2.59994916       2.73562314       0.00000000
Si      -2.76203466      -2.59994916       0.02062314       0.00000000
Si       2.66796534       0.11505084      -2.69437686       0.00000000
Si       2.61950802       2.78006226       0.14480724       0.00000000
Si      -0.31025934       2.76786648       2.64613674       0.00000000
