10
Lattice="10.86 0.0 0.0 0.0 10.86 0.0 0.0 0.0 10.86" Properties=species:S:1:pos:R:3:initial_magmoms:R:1 pbc="T T T"
Si      -1.35750000       1.35750000      -1.35750000       0.00000000
Si       1.35750000       1.35750000       1.35750000       0.00000000
Si      -1.35750000      -1.35750000       1.35750000       0.00000000
Si       1.35750000      -1.35750000      -1.35750000       0.00000000
Si       2.53323618      -2.49718098       0.06382422       0.00000000
Si       2.58817692      -0.19544742       2.52342960       0.00000000
Si      -2.65973346       2.47094322       0.09390642       0.00000000
Si       2.60448864      -0.02944146      -2.56503426       0.00000000
Si       2.74098798       2.52940260       0.01661580       0.00000000
Si      -2.50275216      -2.77453452       0.20282136       0.00000000
