10
Lattice="10.86 0.0 0.0 0.0 10.86 0.0 0.0 0.0 10.86" Properties=species:S:1:pos:R:3:initial_magmoms:R:1 pbc="T T T"
Si      -1.23067692      -1.16205258       1.54907040       0.00000000
Si      -1.23067692       1.55294742      -1.16592960       0.00000000
Si       1.52727438      -0.69543096      -1.78833792       0.00000000
Si       1.48432308       1.55294742       1.54907040       0.00000000
Si      -0.05494074      -2.30173356      -2.45960538       0.00000000
Si      -2.58817692      -2.51955258       0.19157040       0.00000000
Si      -2.58817692       0.19544742      -2.52342960       0.00000000
Si       0.15281106       2.72485002      -2.50681380       0.00000000
Si       1.56709800       1.29392556      -3.22762458       0.00000000
Si       0.12682308      -2.51955258       2.90657040       0.00000000
