10
Lattice="10.86 0.0 0.0 0.0 10.86 0.0 0.0 0.0 10.86" Properties=species:S:1:pos:R:3:initial_magmoms:R:1 pbc="T T T"
Si       1.23806172       1.38589890       1.39662858       0.00000000
Si      -1.47693828       1.38589890      -1.31837142       0.00000000
Si      -1.47693828      -1.32910110       1.39662858       0.00000000
Si       1.55395740      -1.45609794      -1.21388736       0.00000000
Si       0.05395248      -2.84171448      -2.47211610       0.00000000
Si       2.59556172       2.74339890       0.03912858       0.00000000
Si       2.64022890      -0.06937368      -2.70064308       0.00000000
Si      -0.11943828       2.74339890      -2.67587142       0.00000000
Si       2.58206274       0.10863258       2.85126042       0.00000000
Si      -0.05729736      -2.65503108       2.80595250       0.00000000
