10
Lattice="16.28999089631971 0.0 0.0 0.0 16.28999089631971 0.0 0.0 0.0 34.63643526849801" Properties=species:S:1:pos:R:3:initial_magmoms:R:1 pbc="T T T"
Si       0.39211659      -2.08073799       0.92756425       0.00000000
Si      -1.50665070       0.97793757       1.50131713       0.00000000
Si      -1.18744326       0.05945850      -2.06052269       0.00000000
Si       2.14132050       1.05979482      -0.08905032       0.00000000
Si      -0.45240588       3.00750282       1.96205125       0.00000000
Si       1.90785222       2.51010981       1.89295152       0.00000000
Si       2.00885022       2.96620279      -1.50381095       0.00000000
Si      -1.36396496      -0.03982905       3.66110789       0.00000000
Si       1.59464439      -3.54810861      -0.45020464       0.00000000
Si      -1.50045398      -3.22673949       1.64561260       0.00000000
