10
Lattice="16.28999089631971 0.0 0.0 0.0 16.28999089631971 0.0 0.0 0.0 34.63643526849801" Properties=species:S:1:pos:R:3:initial_magmoms:R:1 pbc="T T T"
Si      -2.15310373       1.09286582      -0.31349455       0.00000000
Si       1.42221637       1.55641243       1.22581877       0.00000000
Si       0.59487822      -0.96031179      -2.20880135       0.00000000
Si       0.33972958      -2.35217826       0.92285370       0.00000000
Si       1.26578350      -3.02407560      -1.31479982       0.00000000
Si       1.95799447       3.07226861      -0.73100237       0.00000000
Si       3.53602306       0.55456603       1.47956543       0.00000000
Si      -2.12847325       3.24171719       0.66089819       0.00000000
Si      -1.74523471      -3.53216070       0.96323980       0.00000000
Si      -2.53984462       1.98349388      -2.51384460       0.00000000
