10
Lattice="16.28999089631971 0.0 0.0 0.0 16.28999089631971 0.0 0.0 0.0 34.63643526849801" Properties=species:S:1:pos:R:3:initial_magmoms:R:1 pbc="T T T"
Si      -0.48526281       1.62572571      -1.60955605       0.00000000
Si      -0.24421968      -1.97519508      -1.33111359       0.00000000
Si      -1.76797488      -0.08107533       1.62372236       0.00000000
Si       2.35724445       0.20913102       0.58760745       0.00000000
Si      -0.37276407      -0.94270230       3.24328834       0.00000000
Si       0.91316853      -3.52601937      -0.02365670       0.00000000
Si       3.31623675      -0.83381994      -1.30887698       0.00000000
Si      -2.47312662      -2.62922229      -1.18363156       0.00000000
Si      -2.42703407       0.97337637      -2.77053537       0.00000000
Si      -3.14268488      -1.95849783       0.94803440       0.00000000
