10
Lattice="16.28999089631971 0.0 0.0 0.0 16.28999089631971 0.0 0.0 0.0 34.63643526849801" Properties=species:S:1:pos:R:3:initial_magmoms:R:1 pbc="T T T"
Si      -1.37367054       1.35550719       1.42068346       0.00000000
Si       1.37210670      -1.52533044       1.28677893       0.00000000
Si      -1.88279820      -1.31375592      -0.83335310       0.00000000
Si       0.52087275       0.82458351      -2.28087981       0.00000000
Si      -1.18661247      -0.67658886      -2.94808184       0.00000000
Si       0.01404198       2.64854223       2.77852742       0.00000000
Si       2.76159483      -0.10189395       2.69908872       0.00000000
Si      -2.69442627      -0.10907784       2.83900960       0.00000000
Si       2.07218574      -3.33922194      -0.16400361       0.00000000
Si      -2.71287633       2.92545594       0.13757600       0.00000000
