10
Lattice="16.28999089631971 0.0 0.0 0.0 16.28999089631971 0.0 0.0 0.0 34.63643526849801" Properties=species:S:1:pos:R:3:initial_magmoms:R:1 pbc="T T T"
Si       1.36023129       1.32483312       1.37789705       0.00000000
Si       1.28510181      -1.44586130      -1.33047628       0.00000000
Si      -1.36632375      -1.38037225       1.36799102       0.00000000
Si      -0.86907150       1.82721672      -1.40169575       0.00000000
Si      -0.35756550      -2.42502551      -2.90463876       0.00000000
Si       2.70138699       2.67858099       0.01920245       0.00000000
Si      -2.70313002       2.69123832      -0.01576305       0.00000000
Si      -0.00268785       2.68804548       2.72532440       0.00000000
Si       2.70989037      -0.02272455       2.73169751       0.00000000
Si      -2.71772586      -0.02362050       2.72920369       0.00000000
