10
Lattice="16.28999089631971 0.0 0.0 0.0 16.28999089631971 0.0 0.0 0.0 34.63643526849801" Properties=species:S:1:pos:R:3:initial_magmoms:R:1 pbc="T T T"
Si       1.26514656      -0.55017846       1.88469769       0.00000000
Si       0.86721444       2.14368255      -0.35221811       0.00000000
Si       1.03180860      -1.71484667      -1.45590873       0.00000000
Si      -2.66895360       1.06165188       0.49561303       0.00000000
Si      -0.47540736      -1.57236944       3.00672624       0.00000000
Si      -2.11807467      -2.55153365       1.43256376       0.00000000
Si       0.47399013       2.59356348      -2.61751151       0.00000000
Si       3.32853570      -1.69951615      -0.82323925       0.00000000
Si       2.32559298       1.21582044       3.03174069       0.00000000
Si      -0.22340106      -3.80178368      -1.36471095       0.00000000
