10
Lattice="16.28999089631971 0.0 0.0 0.0 16.28999089631971 0.0 0.0 0.0 34.63643526849801" Properties=species:S:1:pos:R:3:initial_magmoms:R:1 pbc="T T T"
Si       1.35540945       1.35526284      -1.35761048       0.00000000
Si      -1.36001952       1.35496962       1.35916912       0.00000000
Si       1.35519768      -1.36029645       1.35944621       0.00000000
Si      -1.35896067      -1.35953082      -1.35719484       0.00000000
Si       2.71388142       2.71150308      -0.00058882       0.00000000
Si      -0.00166158       2.71272483      -2.71490922       0.00000000
Si       2.71300176      -0.00337203      -2.71466677       0.00000000
Si      -2.71595025       2.71179630      -0.00020782       0.00000000
Si      -0.00087966      -2.71708078      -2.71452822       0.00000000
Si      -2.71669959      -0.00294849      -2.71508241       0.00000000
