10
Lattice="16.28999089631971 0.0 0.0 0.0 16.28999089631971 0.0 0.0 0.0 34.63643526849801" Properties=species:S:1:pos:R:3:initial_magmoms:R:1 pbc="T T T"
Si      -1.46616746      -1.35915615      -1.24760510       0.00000000
Si       1.32576654       1.56520836      -1.23700634       0.00000000
Si       1.15074678      -1.13430528       1.78121432       0.00000000
Si      -1.08010519       0.21110211       2.14489709       0.00000000
Si       2.41783185      -2.53579425       0.10893165       0.00000000
Si      -1.23678730       2.44011168       2.53542312       0.00000000
Si      -0.07714455      -2.64575664      -2.74552785       0.00000000
Si       2.64408366       0.08920404      -2.74802167       0.00000000
Si      -2.75680787       0.06963975      -2.75294005       0.00000000
Si      -0.06998999       2.78985798      -2.74358821       0.00000000
