10
Lattice="16.28999089631971 0.0 0.0 0.0 16.28999089631971 0.0 0.0 0.0 34.63643526849801" Properties=species:S:1:pos:R:3:initial_magmoms:R:1 pbc="T T T"
Si       1.79883954       1.20467808       0.99541707       0.00000000
Si      -2.02158900      -0.06706593       1.27673435       0.00000000
Si       1.03764042      -2.18584107      -0.35526612       0.00000000
Si       0.31954464      -0.03331305      -2.55121734       0.00000000
Si       3.49777251       0.18930609      -0.28959540       0.00000000
Si       2.66294259       0.66287268      -2.38111771       0.00000000
Si      -1.95605433      -2.33336331       2.28901938       0.00000000
Si      -3.74386228       1.12920651       0.04378048       0.00000000
Si       3.34824660      -2.06695665       0.17422137       0.00000000
Si       2.13934941       0.92548377       3.30954788       0.00000000
