10
Lattice="16.28999089631971 0.0 0.0 0.0 16.28999089631971 0.0 0.0 0.0 34.63643526849801" Properties=species:S:1:pos:R:3:initial_magmoms:R:1 pbc="T T T"
Si       1.40686956       1.35457866      -1.34181625       0.00000000
Si      -1.25330373      -1.44982629      -1.45078254       0.00000000
Si       1.76935464      -0.96547572       1.33953025       0.00000000
Si      -1.64330262       1.02073140       1.49501329       0.00000000
Si      -2.65945653      -2.49833214       0.17345936       0.00000000
Si       1.07502597      -3.08886093       1.89405988       0.00000000
Si      -2.68920207       2.70352098       0.10089599       0.00000000
Si       0.10440261       2.58136227      -2.85962033       0.00000000
Si      -2.60038899      -0.13328478      -2.86225270       0.00000000
Si       2.69612532      -2.86933689      -0.00093518       0.00000000
