10
Lattice="16.28999089631971 0.0 0.0 0.0 16.28999089631971 0.0 0.0 0.0 34.63643526849801" Properties=species:S:1:pos:R:3:initial_magmoms:R:1 pbc="T T T"
Si      -1.32338331      -1.88991693       0.34847737       0.00000000
Si       2.01274353      -0.29121633       1.15782741       0.00000000
Si      -0.57210480       2.00689542       1.18764939       0.00000000
Si      -0.57171384       0.94586256      -2.16474378       0.00000000
Si      -1.77424164       2.41323318      -0.78697489       0.00000000
Si       3.46335174       1.14652278      -0.00519547       0.00000000
Si      -3.53890313      -1.03281858       0.48272827       0.00000000
Si       2.91403665      -2.36612250       0.47053624       0.00000000
Si       2.57352678      -2.08692819      -1.84359457       0.00000000
Si       3.15734409       0.23491809      -2.18618374       0.00000000
