10
Lattice="16.28999089631971 0.0 0.0 0.0 16.28999089631971 0.0 0.0 0.0 34.63643526849801" Properties=species:S:1:pos:R:3:initial_magmoms:R:1 pbc="T T T"
Si       0.43521993      -2.24293752      -0.62937902       0.00000000
Si       1.86950556       1.37956752      -0.53641477       0.00000000
Si      -1.68352263       0.99792540      -1.41635390       0.00000000
Si       1.06662033       0.50300262       2.27776253       0.00000000
Si      -3.26503728      -0.23845302       1.62666646       0.00000000
Si       3.14986698       1.36257705       1.45012445       0.00000000
Si      -2.19217788       3.16563570      -0.50631569       0.00000000
Si      -1.28995623      -3.66394680       0.25229194       0.00000000
Si      -0.90624528       0.58231863      -3.77326073       0.00000000
Si       1.27917225       3.62009412      -1.00549628       0.00000000
