10
Lattice="16.28999089631971 0.0 0.0 0.0 16.28999089631971 0.0 0.0 0.0 34.63643526849801" Properties=species:S:1:pos:R:3:initial_magmoms:R:1 pbc="T T T"
Si       0.89914284      -0.63895896       2.11736111       0.00000000
Si       1.47175263       1.23452136      -1.50052049       0.00000000
Si      -0.45006012      -2.28183804      -0.86359072       0.00000000
Si      -1.95533757       1.50193800       0.47375743       0.00000000
Si      -0.11471418       1.53059211      -3.20937925       0.00000000
Si       1.70342901       3.43262458      -0.39918514       0.00000000
Si      -0.75422700      -0.50398002       3.77918356       0.00000000
Si      -2.50201368      -3.10596543       0.11260311       0.00000000
Si       1.53305190      -2.90530521       2.27215142       0.00000000
Si       1.22704425      -3.81690990       0.09116315       0.00000000
