10
Lattice="16.28999089631971 0.0 0.0 0.0 16.28999089631971 0.0 0.0 0.0 34.63643526849801" Properties=species:S:1:pos:R:3:initial_magmoms:R:1 pbc="T T T"
Si       1.65336984      -0.13497894      -1.66182246       0.00000000
Si       1.03687479      -0.90090216       1.90639046       0.00000000
Si      -1.74817764      -1.54095255      -0.31418728       0.00000000
Si      -0.73321290       2.20534020       0.52165964       0.00000000
Si       3.26472777       1.02296313      -0.39845777       0.00000000
Si      -2.76462477       1.55864349       1.60571140       0.00000000
Si       3.30385635      -0.60093810       1.39716531       0.00000000
Si       2.28727890      -2.40132519      -1.50703214       0.00000000
Si      -2.52358164      -2.04227730       1.88415386       0.00000000
Si       0.07788249       0.14204880       3.80287490       0.00000000
