10
Lattice="16.28999089631971 0.0 0.0 0.0 16.28999089631971 0.0 0.0 0.0 34.63643526849801" Properties=species:S:1:pos:R:3:initial_magmoms:R:1 pbc="T T T"
Si      -0.70136595       1.25089281      -1.84508394       0.00000000
Si       0.73321290      -2.20534020      -0.52165964       0.00000000
Si       0.08786826       1.41352632       1.92124950       0.00000000
Si      -2.03141187      -0.64669671       1.08405176       0.00000000
Si       2.98659231       0.99890280      -0.76307573       0.00000000
Si      -2.35395387       1.53250034       2.13138887       0.00000000
Si       1.77008769      -3.10624236       1.38473082       0.00000000
Si       1.17286371       0.26507088       3.64430921       0.00000000
Si      -1.54614906      -2.27242242       2.69360780       0.00000000
Si      -0.46789767      -0.19942218      -3.82708578       0.00000000
