10
Lattice="16.28999089631971 0.0 0.0 0.0 16.28999089631971 0.0 0.0 0.0 34.63643526849801" Properties=species:S:1:pos:R:3:initial_magmoms:R:1 pbc="T T T"
Si       0.82440432      -0.29351322      -2.22400675       0.00000000
Si      -1.69523514       1.69446529       0.05136586       0.00000000
Si       1.87199793      -0.13421331       1.54523615       0.00000000
Si      -0.55988730      -2.27253645       0.73578221       0.00000000
Si      -1.96560027       1.21486489       2.47986624       0.00000000
Si       1.20397761      -3.31925040      -0.43060040       0.00000000
Si       2.98020663      -1.97195337       0.38976402       0.00000000
Si       0.46263600      -2.62187550      -2.58710071       0.00000000
Si       3.04044705       0.55213326      -2.39157792       0.00000000
Si       3.12720759       1.95272370       1.45403837       0.00000000
