10
Lattice="16.28999089631971 0.0 0.0 0.0 16.28999089631971 0.0 0.0 0.0 34.63643526849801" Properties=species:S:1:pos:R:3:initial_magmoms:R:1 pbc="T T T"
Si       2.18733975      -0.87033465       0.39232712       0.00000000
Si      -1.09011051      -0.74514600      -2.00413454       0.00000000
Si      -0.68779638      -0.63333144       2.23567924       0.00000000
Si      -0.26668359       2.37367943      -0.44237680       0.00000000
Si      -0.07876215      -2.92642587      -2.16117622       0.00000000
Si       3.41005086      -0.24859843      -1.49529038       0.00000000
Si       0.21543525       0.28759506      -3.83183098       0.00000000
Si       2.95121043      -0.08542476       2.47300822       0.00000000
Si      -2.43651159       2.64793787      -1.46913986       0.00000000
Si      -0.18370233       1.22343602       3.71541785       0.00000000
