10
Lattice="16.28999089631971 0.0 0.0 0.0 16.28999089631971 0.0 0.0 0.0 34.63643526849801" Properties=species:S:1:pos:R:3:initial_magmoms:R:1 pbc="T T T"
Si       1.79097147       0.77667136       1.38322556       0.00000000
Si       0.15286536       0.53258363      -2.35569455       0.00000000
Si      -0.89476083      -1.95833071       1.20180327       0.00000000
Si      -1.91052378       1.68192132       0.35224239       0.00000000
Si       1.76883336      -1.10097172      -2.72817499       0.00000000
Si       0.50163426       2.09645295       2.83041283       0.00000000
Si      -2.22837426      -0.65954530       2.79976650       0.00000000
Si      -2.14386174       0.51725311      -2.98836403       0.00000000
Si      -0.85007736       3.44792022       1.49928539       0.00000000
Si      -3.65107770       0.65973034       1.47427094       0.00000000
