10
Lattice="16.28999089631971 0.0 0.0 0.0 16.28999089631971 0.0 0.0 0.0 34.63643526849801" Properties=species:S:1:pos:R:3:initial_magmoms:R:1 pbc="T T T"
Si       1.75304835       1.07906589       1.20773854       0.00000000
Si       1.37917656      -1.32571278      -1.45639364       0.00000000
Si      -1.32286203       1.40963886      -1.43055485       0.00000000
Si      -1.45125981      -1.34087877       1.39813513       0.00000000
Si      -2.37803049       0.56298240       2.73860056       0.00000000
Si       3.44396664      -0.74857437       1.17635791       0.00000000
Si       2.75007780      -2.68157835      -0.10169263       0.00000000
Si      -2.67247224       0.03637557      -2.82134705       0.00000000
Si       0.04453686      -2.67628410      -2.82661179       0.00000000
Si      -2.78122428      -2.76592797       0.03654146       0.00000000
