10
Lattice="16.28999089631971 0.0 0.0 0.0 16.28999089631971 0.0 0.0 0.0 34.63643526849801" Properties=species:S:1:pos:R:3:initial_magmoms:R:1 pbc="T T T"
Si      -2.01300417      -1.15483068      -0.28564684       0.00000000
Si       0.60657444      -0.28061154       2.29719358       0.00000000
Si       1.61328015      -1.24076043      -1.34482962       0.00000000
Si      -1.16682012       2.04594255      -0.69820165       0.00000000
Si       2.99797902       1.67576859      -1.23039078       0.00000000
Si      -2.84783409      -0.68126409      -2.37716915       0.00000000
Si       2.04265197       1.49126805       2.80600310       0.00000000
Si      -3.71193714      -0.13945869       0.99936563       0.00000000
Si      -3.12811983       2.18238759       0.65677645       0.00000000
Si       2.14027794      -2.07163188       2.52340427       0.00000000
