10
Lattice="16.28999089631971 0.0 0.0 0.0 16.28999089631971 0.0 0.0 0.0 34.63643526849801" Properties=species:S:1:pos:R:3:initial_magmoms:R:1 pbc="T T T"
Si       1.79880696       1.17778329      -0.76414946       0.00000000
Si      -1.74289058       0.14110398      -1.57557768       0.00000000
Si      -1.35706193       1.15522164       1.56813085       0.00000000
Si       1.19889839      -2.07671925       0.25499358       0.00000000
Si      -2.67407585      -1.69816897      -0.40178287       0.00000000
Si      -2.69818505      -0.76535307       1.84425266       0.00000000
Si       3.34347363       0.65448333       0.97137937       0.00000000
Si       1.99886445      -2.29337625      -2.01774666       0.00000000
Si       2.42742177       0.12333159      -2.76772982       0.00000000
Si      -2.28181265       2.45861712      -1.59123336       0.00000000
