10
Lattice="16.28999089631971 0.0 0.0 0.0 16.28999089631971 0.0 0.0 0.0 34.63643526849801" Properties=species:S:1:pos:R:3:initial_magmoms:R:1 pbc="T T T"
Si      -1.17540495      -2.06156466       0.18416203       0.00000000
Si      -0.89238249       1.93168449      -1.13417071       0.00000000
Si       0.93558357       0.83880468       2.07236835       0.00000000
Si       1.81436391      -0.73818135      -1.45054008       0.00000000
Si       1.33828866       3.00809511      -1.52105990       0.00000000
Si       3.03725421       1.24621758      -1.85765697       0.00000000
Si       2.98939419      -2.43173862      -0.34802710       0.00000000
Si      -3.13670466      -1.92511962       1.53914013       0.00000000
Si      -2.16209025      -2.66538609      -2.04933511       0.00000000
Si       3.28681701       1.27698939       2.02872642       0.00000000
