10
Lattice="16.28999089631971 0.0 0.0 0.0 16.28999089631971 0.0 0.0 0.0 34.63643526849801" Properties=species:S:1:pos:R:3:initial_magmoms:R:1 pbc="T T T"
Si       0.08382834      -1.34895861       1.92131877       0.00000000
Si      -0.68082426       1.53657054       1.68921989       0.00000000
Si       2.35123344       0.43818471      -0.04364193       0.00000000
Si      -0.93558357      -0.83880468      -2.07236835       0.00000000
Si       0.87548976       0.53400249       3.43451620       0.00000000
Si      -1.82796606       1.09287981      -3.20653906       0.00000000
Si       3.64395897      -1.49734422       0.12275160       0.00000000
Si       0.87878034      -1.57698603      -3.52290844       0.00000000
Si       1.09848357      -3.45504384       1.61599843       0.00000000
Si       3.04225524       2.41655634       0.98952887       0.00000000
