10
Lattice="16.28999089631971 0.0 0.0 0.0 16.28999089631971 0.0 0.0 0.0 34.63643526849801" Properties=species:S:1:pos:R:3:initial_magmoms:R:1 pbc="T T T"
Si       0.73151874      -1.73294649       1.49761103       0.00000000
Si       1.67537763       1.60334325      -0.66986903       0.00000000
Si      -0.68246955      -0.86758911      -2.16034495       0.00000000
Si      -1.95875847       0.76321908       1.41230144       0.00000000
Si      -2.97219195      -1.41591051       1.44596807       0.00000000
Si      -1.23585714      -3.10404321       1.54073341       0.00000000
Si       0.34497333       3.58841007      -0.99430870       0.00000000
Si      -3.06665766       2.18890359      -0.18928822       0.00000000
Si      -1.23703002       1.07605224      -3.48938035       0.00000000
Si       1.26521172      -2.04828831      -3.03962598       0.00000000
