10
Lattice="16.28999089631971 0.0 0.0 0.0 16.28999089631971 0.0 0.0 0.0 34.63643526849801" Properties=species:S:1:pos:R:3:initial_magmoms:R:1 pbc="T T T"
Si       1.35146727       1.34314308       1.39273530       0.00000000
Si      -1.35909099      -1.37521809       1.38348737       0.00000000
Si       1.39263210      -1.36493910      -1.40617425       0.00000000
Si      -1.38777768       1.37414295      -1.58471132       0.00000000
Si      -0.34570638      -2.28507975      -2.67322311       0.00000000
Si      -2.15554167      -0.55863297      -2.90296235       0.00000000
Si       2.69462664       2.68995141       0.01119104       0.00000000
Si      -2.72139111       2.67292836       0.01325191       0.00000000
Si      -0.00052128       2.69563340       2.74781732       0.00000000
Si       2.70897813      -2.74502790       0.01826034       0.00000000
