10
Lattice="16.28999089631971 0.0 0.0 0.0 16.28999089631971 0.0 0.0 0.0 34.63643526849801" Properties=species:S:1:pos:R:3:initial_magmoms:R:1 pbc="T T T"
Si      -1.35348723       1.35610992      -1.35861493       0.00000000
Si      -1.35591444      -1.35731538       1.35667529       0.00000000
Si       1.35822762       1.35796698       1.35695238       0.00000000
Si       1.35927018      -1.35812988      -1.36419140       0.00000000
Si      -0.00302994       2.69001657      -2.73442687       0.00000000
Si      -2.71202436       2.71487395      -0.00107373       0.00000000
Si      -2.71406061      -0.00003258       2.71438968       0.00000000
Si       0.00138465       2.71489908       2.71393940       0.00000000
Si       0.00084708      -2.71472850       2.71452822       0.00000000
Si      -2.71466334      -2.71469592      -0.00051955       0.00000000
