10
Lattice="16.28999089631971 0.0 0.0 0.0 16.28999089631971 0.0 0.0 0.0 34.63643526849801" Properties=species:S:1:pos:R:3:initial_magmoms:R:1 pbc="T T T"
Si       0.89238249      -1.93168449       1.13417071       0.00000000
Si      -0.67715901      -0.40809708      -2.33470486       0.00000000
Si       2.23067115       1.07641062      -0.38688920       0.00000000
Si      -1.99961379       1.19462715       1.08162721       0.00000000
Si      -2.39203989       1.33029027      -2.63188564       0.00000000
Si       2.70674640      -2.66986584      -0.31636938       0.00000000
Si       1.95232392       2.11931271      -2.51294406       0.00000000
Si       1.82796606      -1.09287981       3.20653906       0.00000000
Si       1.07237070       0.32210217      -3.74704093       0.00000000
Si      -3.58608060       1.49069790      -0.62723156       0.00000000
