10
Lattice="16.28999089631971 0.0 0.0 0.0 16.28999089631971 0.0 0.0 0.0 34.63643526849801" Properties=species:S:1:pos:R:3:initial_magmoms:R:1 pbc="T T T"
Si      -1.35614250      -1.35711222      -1.35764511       0.00000000
Si      -1.35715248       1.35600566       1.35961939       0.00000000
Si       1.35880686       1.35727628      -1.35702166       0.00000000
Si       1.35998430      -1.35493732       1.36194003       0.00000000
Si      -2.71415835      -2.71239644      -0.00062346       0.00000000
Si      -2.71389771       0.00012055      -2.71438968       0.00000000
Si      -2.71459818       2.71384232       0.00034636       0.00000000
Si       0.00136836       2.71452650      -2.71435504       0.00000000
Si       0.00161271      -2.71526348      -2.71438968       0.00000000
Si      -2.71472850       0.00514927       2.71508241       0.00000000
