10
Lattice="16.28999089631971 0.0 0.0 0.0 16.28999089631971 0.0 0.0 0.0 34.63643526849801" Properties=species:S:1:pos:R:3:initial_magmoms:R:1 pbc="T T T"
Si       1.36193635       1.33802802      -1.35317701       0.00000000
Si       1.35452596      -1.35829278       1.35691775       0.00000000
Si      -1.36098063       1.35573525       1.35750657       0.00000000
Si      -1.37529954      -1.36770840      -1.35182619       0.00000000
Si      -0.05782950       2.58062922      -2.72242880       0.00000000
Si      -2.66321952      -0.00570150      -2.71056235       0.00000000
Si       2.71258704       2.71164969      -0.00221673       0.00000000
Si       2.71155425      -0.00026064       2.71508241       0.00000000
Si      -0.00299736       2.71287144       2.71483995       0.00000000
Si      -0.00338832      -2.71723716       2.71438968       0.00000000
