10
Lattice="16.28999089631971 0.0 0.0 0.0 16.28999089631971 0.0 0.0 0.0 34.63643526849801" Properties=species:S:1:pos:R:3:initial_magmoms:R:1 pbc="T T T"
Si      -0.02798622      -0.48526281       2.36376485       0.00000000
Si      -0.69388884      -1.93300398      -1.27805054       0.00000000
Si       1.95844896       0.80642016      -1.20288943       0.00000000
Si      -1.69091829       1.82764026       0.03138063       0.00000000
Si      -2.06479008      -0.57713841      -2.63275155       0.00000000
Si       0.67139235       2.14669620      -2.64795696       0.00000000
Si       2.21296459      -0.92079225       2.66219254       0.00000000
Si      -0.67051269       1.54520424       3.26355066       0.00000000
Si      -3.44396664       0.74857437      -1.17635791       0.00000000
Si      -0.61149402       3.51714132      -1.23953480       0.00000000
