10
Lattice="16.28999089631971 0.0 0.0 0.0 16.28999089631971 0.0 0.0 0.0 34.63643526849801" Properties=species:S:1:pos:R:3:initial_magmoms:R:1 pbc="T T T"
Si      -1.33338537      -1.34568432      -1.36313153       0.00000000
Si      -1.35443205       1.35682668       1.35380047       0.00000000
Si       1.36006839      -1.35816246       1.35390437       0.00000000
Si       1.35643572       1.34385984      -1.37568724       0.00000000
Si       2.66321952      -0.13326849      -2.72603099       0.00000000
Si      -2.65681755       0.04727358      -2.73968814       0.00000000
Si      -2.71238274       0.00006516       2.71057967       0.00000000
Si       0.00278559      -2.71480995       2.71040648       0.00000000
Si      -2.71163340       2.71366965      -0.01046021       0.00000000
Si       0.00257382       2.71438641       2.71096067       0.00000000
