10
Lattice="16.28999089631971 0.0 0.0 0.0 16.28999089631971 0.0 0.0 0.0 34.63643526849801" Properties=species:S:1:pos:R:3:initial_magmoms:R:1 pbc="T T T"
Si      -1.35596561       1.35321030       1.35986185       0.00000000
Si      -1.35664070      -1.35819504      -1.35632893       0.00000000
Si       1.35860718       1.35710361      -1.35598256       0.00000000
Si       1.35632658      -1.35371529       1.36467631       0.00000000
Si      -2.69278817      -0.00386073       2.73423636       0.00000000
Si      -2.71407920      -0.00094482      -2.71366231       0.00000000
Si       0.00086337       2.71603170      -2.71296958       0.00000000
Si      -2.71399775       2.71523349       0.00031173       0.00000000
Si       0.00129017      -2.71551531      -2.71397404       0.00000000
Si       2.71584111      -0.00091224      -2.71393940       0.00000000
