10
Lattice="16.28999089631971 0.0 0.0 0.0 16.28999089631971 0.0 0.0 0.0 34.63643526849801" Properties=species:S:1:pos:R:3:initial_magmoms:R:1 pbc="T T T"
Si       1.07942427       1.68950106      -1.27091543       0.00000000
Si      -1.75304835      -1.07906589      -1.20773854       0.00000000
Si       1.69091829      -1.82764026      -0.03138063       0.00000000
Si      -0.15462468       1.41112125       2.12965705       0.00000000
Si       1.02040560      -0.28243602       3.23217004       0.00000000
Si       2.36231064       0.31905594      -2.67933758       0.00000000
Si      -0.37387179      -2.40477867      -2.66413218       0.00000000
Si       1.66293207      -2.31290307       2.33238422       0.00000000
Si       2.76486912       2.63529846       0.09673962       0.00000000
Si       1.06826562       3.39552018       1.72254016       0.00000000
