10
Lattice="16.28999089631971 0.0 0.0 0.0 16.28999089631971 0.0 0.0 0.0 34.63643526849801" Properties=species:S:1:pos:R:3:initial_magmoms:R:1 pbc="T T T"
Si      -1.34999532      -1.36314720      -1.38372636       0.00000000
Si       1.36127059       1.35829278      -1.38296436       0.00000000
Si       1.39575652      -1.22464962       1.50658187       0.00000000
Si      -1.42131294       1.37746611       1.41392935       0.00000000
Si      -2.68681788      -2.72021823      -0.00935184       0.00000000
Si       2.71407364      -2.70065394      -0.00443347       0.00000000
Si      -2.70836955       2.71774215      -0.03113817       0.00000000
Si       2.71848823       2.71479366      -0.02272151       0.00000000
Si      -2.70802746      -0.00112401      -2.74327648       0.00000000
Si       0.00698678       2.71480995      -2.74265302       0.00000000
