10
Lattice="16.28999089631971 0.0 0.0 0.0 16.28999089631971 0.0 0.0 0.0 34.63643526849801" Properties=species:S:1:pos:R:3:initial_magmoms:R:1 pbc="T T T"
Si       1.74958740      -0.23426649       1.46127738       0.00000000
Si      -1.07178426      -2.01857535      -0.30819517       0.00000000
Si      -1.29272553       1.93552893      -0.16639353       0.00000000
Si       0.70652988      -0.46007847      -2.26920732       0.00000000
Si      -0.02236617       1.87194906      -2.20447179       0.00000000
Si      -1.59014835      -1.77319908      -2.54314704       0.00000000
Si      -2.54547540      -1.95769962       1.49324683       0.00000000
Si       0.68012379      -3.50068842       0.24470655       0.00000000
Si       1.00154178       0.78775182       3.42751964       0.00000000
Si       1.87749648      -2.53431675       2.01293220       0.00000000
