10
Lattice="16.28999089631971 0.0 0.0 0.0 16.28999089631971 0.0 0.0 0.0 34.63643526849801" Properties=species:S:1:pos:R:3:initial_magmoms:R:1 pbc="T T T"
Si      -0.65888163       2.18409804       0.56391612       0.00000000
Si      -0.11479563       0.11160279      -2.36393803       0.00000000
Si       2.25657764      -0.23829012       0.74523796       0.00000000
Si      -1.68404391      -1.65793104       0.51133798       0.00000000
Si       2.92613590      -0.90901458      -1.38642801       0.00000000
Si      -0.37880766      -2.18269710      -2.86114433       0.00000000
Si      -2.43737496       2.55091626      -1.01048393       0.00000000
Si       2.08769382       0.52869195      -3.02258485       0.00000000
Si      -1.27387800       1.99370052       2.88109493       0.00000000
Si      -3.63172518      -0.47723184       1.39061902       0.00000000
