10
Lattice="16.28999089631971 0.0 0.0 0.0 16.28999089631971 0.0 0.0 0.0 34.63643526849801" Properties=species:S:1:pos:R:3:initial_magmoms:R:1 pbc="T T T"
Si      -1.35198855       1.35249032       1.35508201       0.00000000
Si       1.34315937       1.34680833      -1.38154427       0.00000000
Si       1.35941679      -1.35891180       1.35466638       0.00000000
Si      -1.35146727      -1.34314308      -1.39273530       0.00000000
Si       2.63687859      -0.12997791      -2.75732156       0.00000000
Si      -2.71160082      -0.00226431       2.71189585       0.00000000
Si      -2.71197549       2.71154610      -0.00841666       0.00000000
Si       0.00346977       2.71241925       2.71196512       0.00000000
Si      -2.71055826      -2.71836117      -0.00924793       0.00000000
Si       0.00364896      -2.71764441       2.71217294       0.00000000
