10
Lattice="16.28999089631971 0.0 0.0 0.0 16.28999089631971 0.0 0.0 0.0 34.63643526849801" Properties=species:S:1:pos:R:3:initial_magmoms:R:1 pbc="T T T"
Si      -0.75505779       0.77862942       2.12785595       0.00000000
Si       1.36106208       1.96639848      -0.23622062       0.00000000
Si       1.56752154      -1.66068405       0.77440185       0.00000000
Si      -0.79166142      -1.88296110      -1.51319743       0.00000000
Si      -1.55631402       1.00256805      -1.74529631       0.00000000
Si      -0.87548976      -0.53400249      -3.43451620       0.00000000
Si      -2.77420329      -2.38112559      -0.30601308       0.00000000
Si      -0.17550846       3.71579365      -0.01229594       0.00000000
Si       2.16676548       1.88255385      -2.44498733       0.00000000
Si       1.47574368      -0.09581778      -3.47815814       0.00000000
