10
Lattice="16.28999089631971 0.0 0.0 0.0 16.28999089631971 0.0 0.0 0.0 34.63643526849801" Properties=species:S:1:pos:R:3:initial_magmoms:R:1 pbc="T T T"
Si       0.61499637       0.19039752      -2.31717881       0.00000000
Si      -1.33040430       1.98506682      -0.32443967       0.00000000
Si      -1.67537763      -1.60334325       0.66986903       0.00000000
Si       1.62886968       0.03272661       2.13512961       0.00000000
Si      -0.68233923       2.89201257       1.80504420       0.00000000
Si      -2.35784718      -2.47093236      -1.49047592       0.00000000
Si       1.27387800      -1.99370052      -2.88109493       0.00000000
Si       2.17919475       1.99759383      -2.50220676       0.00000000
Si      -3.41322741       1.28979333      -1.32435948       0.00000000
Si       3.12530166       1.86683400       1.54970425       0.00000000
