10
Lattice="16.28999089631971 0.0 0.0 0.0 16.28999089631971 0.0 0.0 0.0 34.63643526849801" Properties=species:S:1:pos:R:3:initial_magmoms:R:1 pbc="T T T"
Si      -1.00286127       0.89122590       1.88401531       0.00000000
Si       1.98699067       1.02156219      -0.61275352       0.00000000
Si       0.60424660      -2.20737645       0.50139732       0.00000000
Si      -1.75256521       0.05115060      -1.57602796       0.00000000
Si       2.18895409       0.11148876      -2.78148049       0.00000000
Si      -3.47637301      -0.92654262      -0.32568658       0.00000000
Si      -3.16723768      -0.08252514       1.80272355       0.00000000
Si      -1.91691502       2.25939042      -2.33629814       0.00000000
Si       3.72757717       0.01404198       0.58774600       0.00000000
Si       1.23286141      -3.26182815      -1.50218304       0.00000000
