10
Lattice="16.28999089631971 0.0 0.0 0.0 16.28999089631971 0.0 0.0 0.0 34.63643526849801" Properties=species:S:1:pos:R:3:initial_magmoms:R:1 pbc="T T T"
Si       0.00734679      -1.76492376      -1.57498886       0.00000000
Si       1.72517616       1.42100928      -0.88167095       0.00000000
Si      -2.12699345       1.13169888       0.09514634       0.00000000
Si       0.79159626      -0.95747733       2.57837232       0.00000000
Si       1.58601069       0.97979463      -3.22416902       0.00000000
Si       1.75532895      -1.36361961      -3.03893326       0.00000000
Si      -1.53731988      -1.24162380      -3.31051770       0.00000000
Si       1.28995623       3.66394680      -0.25229194       0.00000000
Si       3.93453999       0.57443427      -0.53475222       0.00000000
Si      -0.33008427      -3.99223428      -0.77582195       0.00000000
