10
Lattice="16.28999089631971 0.0 0.0 0.0 16.28999089631971 0.0 0.0 0.0 34.63643526849801" Properties=species:S:1:pos:R:3:initial_magmoms:R:1 pbc="T T T"
Si       1.74698521       0.91497672      -1.27500253       0.00000000
Si      -1.07319564      -1.79453898      -1.25352793       0.00000000
Si       1.95191341      -0.80236395       1.49522111       0.00000000
Si      -1.95769377       1.86197958       0.07748175       0.00000000
Si       0.87664309       3.09747834       1.27354780       0.00000000
Si       0.35771211       2.27004408      -2.66908519       0.00000000
Si      -2.36025225      -0.45426294      -2.69859545       0.00000000
Si      -1.40547906       0.25736571       3.48685189       0.00000000
Si       2.97779245       2.37959433       0.27296990       0.00000000
Si       0.91287205      -0.72254295       3.73564554       0.00000000
