10
Lattice="16.28999089631971 0.0 0.0 0.0 16.28999089631971 0.0 0.0 0.0 34.63643526849801" Properties=species:S:1:pos:R:3:initial_magmoms:R:1 pbc="T T T"
Si       1.18744326      -0.05945850       2.06052269       0.00000000
Si      -2.08496429      -1.17998244       0.04038611       0.00000000
Si       0.92605392      -0.67189734      -2.23765351       0.00000000
Si      -0.33972958       2.35217826      -0.92285370       0.00000000
Si       0.25514864       1.39186647      -3.13165504       0.00000000
Si      -0.31920744       0.91847907       3.56183981       0.00000000
Si      -1.35606824      -3.51200997      -0.02434943       0.00000000
Si       3.32876376       1.00033632       1.97147236       0.00000000
Si       1.57955985      -2.14019649       2.98808694       0.00000000
Si       1.08248679       3.90859069       0.30296507       0.00000000
