10
Lattice="10.86 0.0 0.0 0.0 10.86 0.0 0.0 0.0 10.86" Properties=species:S:1:pos:R:3:initial_magmoms:R:1 pbc="T T T"
Si      -0.96418338      -1.02170880      -1.62593748       0.00000000
Si      -0.83742546       1.89777414       1.07839800       0.00000000
Si       1.21409370       1.11284592      -1.90531098       0.00000000
Si       0.49691016      -1.72409016       1.95430044       0.00000000
Si      -2.23347846      -2.26395162      -0.22510608       0.00000000
Si      -2.23347846       0.45104838       2.48989392       0.00000000
Si      -2.23347846       0.45104838      -2.94010608       0.00000000
Si       0.48152154      -2.26395162      -2.94010608       0.00000000
Si      -3.59097846      -0.90645162       1.13239392       0.00000000
Si      -2.23347846       3.16604838      -0.22510608       0.00000000
