10
Lattice="10.86 0.0 0.0 0.0 10.86 0.0 0.0 0.0 10.86" Properties=species:S:1:pos:R:3:initial_magmoms:R:1 pbc="T T T"
Si       1.24521846      -1.13345820      -1.39256694       0.00000000
Si      -1.46978154      -1.13345820       1.32243306       0.00000000
Si      -1.46978154       1.58154180      -1.39256694       0.00000000
Si       2.60271846      -2.49095820      -0.03506694       0.00000000
Si      -0.11228154      -2.49095820       2.67993306       0.00000000
Si      -2.66623860       0.12470538       2.51546922       0.00000000
Si       2.33023020       2.85082602       0.08164548       0.00000000
Si      -0.11228154      -2.49095820      -2.75006694       0.00000000
Si      -2.82728154      -2.49095820      -0.03506694       0.00000000
Si       2.60271846       0.22404180      -2.75006694       0.00000000
