10
Lattice="10.86 0.0 0.0 0.0 10.86 0.0 0.0 0.0 10.86" Properties=species:S:1:pos:R:3:initial_magmoms:R:1 pbc="T T T"
Si      -1.19806434      -1.42855698       1.09006164       0.00000000
Si      -1.19806434       1.28644302      -1.62493836       0.00000000
Si       1.79406114       1.16746086       1.30500276       0.00000000
Si       1.51693566      -1.42855698      -1.62493836       0.00000000
Si       2.57292948      -2.05222506       0.38059956       0.00000000
Si       0.18322992       2.44761594       2.41924962       0.00000000
Si      -2.55556434      -0.07105698       2.44756164       0.00000000
Si      -2.55556434       2.64394302      -0.26743836       0.00000000
Si      -2.55556434      -2.78605698      -0.26743836       0.00000000
Si      -2.55556434      -0.07105698      -2.98243836       0.00000000
