10
Lattice="10.86 0.0 0.0 0.0 10.86 0.0 0.0 0.0 10.86" Properties=species:S:1:pos:R:3:initial_magmoms:R:1 pbc="T T T"
Si       1.40369844       1.24105908       1.19188500       0.00000000
Si      -1.31130156      -1.47394092       1.19188500       0.00000000
Si      -1.31130156       1.24105908      -1.52311500       0.00000000
Si       0.04619844       2.59855908       2.54938500       0.00000000
Si      -2.66880156      -0.11644092       2.54938500       0.00000000
Si      -2.66880156       2.59855908      -0.16561500       0.00000000
Si       2.76119844      -0.11644092       2.54938500       0.00000000
Si       0.06999270       2.40223200      -2.90892702       0.00000000
Si       2.63617812       2.72112504      -0.11366076       0.00000000
Si       0.04619844      -2.83144092       2.54938500       0.00000000
