10
Lattice="10.86 0.0 0.0 0.0 10.86 0.0 0.0 0.0 10.86" Properties=species:S:1:pos:R:3:initial_magmoms:R:1 pbc="T T T"
Si      -1.23247968       1.23493404      -1.40945424       0.00000000
Si      -1.23247968      -1.48006596       1.30554576       0.00000000
Si       1.48252032       1.23493404       1.30554576       0.00000000
Si      -2.58997968       2.59243404      -0.05195424       0.00000000
Si      -2.58997968      -0.12256596       2.66304576       0.00000000
Si       0.12502032       2.59243404       2.66304576       0.00000000
Si      -2.63617812      -2.72112504       0.11366076       0.00000000
Si       0.12502032       2.59243404      -2.76695424       0.00000000
Si      -2.56618542      -0.31889304      -2.79526626       0.00000000
Si       2.84002032       2.59243404      -0.05195424       0.00000000
