10
Lattice="16.28999089631971 0.0 0.0 0.0 16.28999089631971 0.0 0.0 0.0 34.31420841018396" Properties=species:S:1:pos:R:3:initial_magmoms:R:1 pbc="T T T"
Si      -1.31652817       1.21298598      -1.47515835       0.00000000
Si      -1.37440654      -1.33442793       1.35857919       0.00000000
Si       1.33960098       1.37559276       1.36067236       0.00000000
Si       1.35450633      -1.33004755      -1.53481020       0.00000000
Si      -2.20851970      -0.74556072      -2.68854578       0.00000000
Si       0.40641041       2.19851469      -2.78868781       0.00000000
Si       2.19130246       0.50090121      -2.93922432       0.00000000
Si      -0.35761732      -2.45075394      -2.87632634       0.00000000
Si       2.69243173      -2.70932741      -0.03169948       0.00000000
Si       2.69513587       0.02090007       2.71886380       0.00000000
