10
Lattice="16.28999089631971 0.0 0.0 0.0 16.28999089631971 0.0 0.0 0.0 34.31420841018396" Properties=species:S:1:pos:R:3:initial_magmoms:R:1 pbc="T T T"
Si      -2.00103430      -1.23922917      -0.00792659       0.00000000
Si       0.31173261       1.77472287      -1.63366606       0.00000000
Si      -0.36802696       1.26780413       2.17246806       0.00000000
Si       1.60479697      -2.03756949      -0.19535090       0.00000000
Si      -1.47527455      -2.60087769      -1.85900759       0.00000000
Si       1.99982947       3.09157226      -0.20451280       0.00000000
Si      -1.78504519       2.72801204      -1.75428057       0.00000000
Si      -2.58894040      -1.77991056       2.26398411       0.00000000
Si       2.71285906      -1.52865360      -2.32001924       0.00000000
Si      -1.35774220      -0.33440112       3.62803440       0.00000000
