10
Lattice="16.28999089631971 0.0 0.0 0.0 16.28999089631971 0.0 0.0 0.0 34.31420841018396" Properties=species:S:1:pos:R:3:initial_magmoms:R:1 pbc="T T T"
Si      -1.69520256       0.36569421       1.51095838       0.00000000
Si       1.84474476       0.56049003       1.30524459       0.00000000
Si       0.11069055       0.62214768      -2.29184726       0.00000000
Si       0.22962384      -2.38571027      -0.25831751       0.00000000
Si       2.37695535      -1.60040195      -0.81911493       0.00000000
Si       1.19578374      -1.41927344      -2.86331641       0.00000000
Si      -3.33022986      -0.95966671       0.47785993       0.00000000
Si       0.40364991      -2.87462204       2.02405903       0.00000000
Si       1.97141580      -1.28158594       2.74273621       0.00000000
Si      -2.12706675       0.69944373      -3.04919658       0.00000000
