10
Lattice="16.28999089631971 0.0 0.0 0.0 16.28999089631971 0.0 0.0 0.0 34.31420841018396" Properties=species:S:1:pos:R:3:initial_magmoms:R:1 pbc="T T T"
Si      -0.28443969      -1.16846608       1.99001931       0.00000000
Si       1.63502730       1.32536092       1.03309845       0.00000000
Si      -1.46047995       1.79948137      -0.44457513       0.00000000
Si       0.01304829      -1.62080680      -1.83814454       0.00000000
Si      -3.42594827       0.46339511      -0.36503475       0.00000000
Si       3.33022986       0.95966671      -0.47785993       0.00000000
Si      -1.66605975      -2.91947818       1.26389594       0.00000000
Si      -3.06201338      -1.83593254      -0.45092326       0.00000000
Si      -0.42371919       2.89703641      -2.34510294       0.00000000
Si      -1.45202544       3.13340431       1.51088975       0.00000000
