10
Lattice="16.28999089631971 0.0 0.0 0.0 16.28999089631971 0.0 0.0 0.0 34.31420841018396" Properties=species:S:1:pos:R:3:initial_magmoms:R:1 pbc="T T T"
Si       0.76051494      -0.49574217      -2.14978636       0.00000000
Si       0.28092105      -1.58646911       1.73547637       0.00000000
Si       0.53284590       2.17274880       0.86911076       0.00000000
Si      -2.34691822       0.70083327      -0.11306538       0.00000000
Si      -1.60376679       2.07798987       1.69402479       0.00000000
Si      -1.10363121      -1.35316453      -3.29015108       0.00000000
Si       2.35336743       1.85967129       2.28086671       0.00000000
Si       2.41605135      -2.52390974       1.52766941       0.00000000
Si       1.76995737       1.37382204      -3.20577240       0.00000000
Si      -1.28360313      -3.38506430       1.49596307       0.00000000
