10
Lattice="16.28999089631971 0.0 0.0 0.0 16.28999089631971 0.0 0.0 0.0 34.31420841018396" Properties=species:S:1:pos:R:3:initial_magmoms:R:1 pbc="T T T"
Si      -0.33236487       0.47415303      -2.22249821       0.00000000
Si       1.27803195       1.91448225       0.59596950       0.00000000
Si       0.87462639      -1.88417375       1.26489106       0.00000000
Si      -2.31795297      -0.40435364       0.61913161       0.00000000
Si      -1.18640070      -1.22021007       2.64555832       0.00000000
Si      -2.25183186      -2.01967397      -1.26557734       0.00000000
Si       2.92970763      -0.58938523       1.37582896       0.00000000
Si      -1.06258041       2.70407484      -1.81611481       0.00000000
Si       1.97745939       1.26742716       2.66816973       0.00000000
Si       3.33425349      -1.17312712      -0.99072038       0.00000000
