10
Lattice="16.28999089631971 0.0 0.0 0.0 16.28999089631971 0.0 0.0 0.0 34.31420841018396" Properties=species:S:1:pos:R:3:initial_magmoms:R:1 pbc="T T T"
Si      -1.35321030       1.35760860       1.36134835       0.00000000
Si      -1.35114147      -1.35123921      -1.37635396       0.00000000
Si       1.36262592      -1.35708732       1.36086795       0.00000000
Si       1.36897902       1.35669636      -1.36894209       0.00000000
Si      -2.70772869       2.71637379      -0.00140688       0.00000000
Si      -2.71113981      -2.71770957       0.00260788       0.00000000
Si      -2.71092804      -0.00017919       2.71806428       0.00000000
Si       0.00384444      -2.71479366       2.71713780       0.00000000
Si       2.71801908      -2.71396287       0.00106374       0.00000000
Si       0.00399105       2.71533123       2.71782408       0.00000000
