10
Lattice="16.28999089631971 0.0 0.0 0.0 16.28999089631971 0.0 0.0 0.0 34.31420841018396" Properties=species:S:1:pos:R:3:initial_magmoms:R:1 pbc="T T T"
Si      -1.35127179       1.35405738       1.35836301       0.00000000
Si      -1.35633798      -1.35738054      -1.35671593       0.00000000
Si       1.35842310       1.35726651      -1.35651004       0.00000000
Si       1.36215351      -1.35946566       1.36134835       0.00000000
Si      -2.71387653      -0.00040725      -2.71356912       0.00000000
Si      -2.71271017      -0.01830996       2.71518189       0.00000000
Si       0.00104256       2.71510317      -2.71380932       0.00000000
Si      -2.71491583       2.71423980       0.00168140       0.00000000
Si       0.00089595      -2.71502172      -2.71449560       0.00000000
Si      -2.71507222      -2.71451673       0.00116668       0.00000000
