10
Lattice="16.28999089631971 0.0 0.0 0.0 16.28999089631971 0.0 0.0 0.0 34.31420841018396" Properties=species:S:1:pos:R:3:initial_magmoms:R:1 pbc="T T T"
Si       0.99054603       0.04404816       2.10394255       0.00000000
Si      -1.66860099       1.67200560       0.02209836       0.00000000
Si      -0.92204658      -2.24632584      -0.04687323       0.00000000
Si       1.72880883       0.74712456      -1.60168520       0.00000000
Si       3.25557279       0.52691634       1.52567919       0.00000000
Si      -2.77873191      -1.96726185      -1.43224155       0.00000000
Si       0.98378568      -0.17519895      -3.61400876       0.00000000
Si       0.70483572      -3.48425181      -1.22882680       0.00000000
Si      -2.48375259       1.76811660      -2.25564575       0.00000000
Si      -3.44423543       0.96078420       1.47033034       0.00000000
