10
Lattice="16.28999089631971 0.0 0.0 0.0 16.28999089631971 0.0 0.0 0.0 34.31420841018396" Properties=species:S:1:pos:R:3:initial_magmoms:R:1 pbc="T T T"
Si       1.35482301      -1.35540945       1.36176012       0.00000000
Si      -1.35203742      -1.35633798      -1.36818718       0.00000000
Si      -1.36122498       1.36001952       1.36124541       0.00000000
Si       1.35405738       1.36663326      -1.39652730       0.00000000
Si      -2.65966830       0.08289981      -2.74312396       0.00000000
Si       2.71077003      -2.71094922      -0.00325985       0.00000000
Si       2.71456560       2.71622718       0.00130394       0.00000000
Si      -0.00224802      -2.71270854       2.71840742       0.00000000
Si       2.71296918       0.00247608       2.71902508       0.00000000
Si      -2.71668330       2.71585251       0.00840699       0.00000000
