10
Lattice="16.28999089631971 0.0 0.0 0.0 16.28999089631971 0.0 0.0 0.0 34.31420841018396" Properties=species:S:1:pos:R:3:initial_magmoms:R:1 pbc="T T T"
Si      -1.34120457      -1.36195803      -1.37346127       0.00000000
Si       1.36902789       1.35702216      -1.37020142       0.00000000
Si       1.26522801      -1.45684728       1.37033868       0.00000000
Si      -1.51658271       1.12580190       1.50876227       0.00000000
Si       0.12240306       2.46192399       2.69311784       0.00000000
Si      -0.49792014      -2.56699449       2.72811835       0.00000000
Si      -2.70835585       2.69850366       0.01276489       0.00000000
Si      -2.70484861      -0.00177561      -2.73014289       0.00000000
Si      -2.70264295      -2.73432537      -0.01664240       0.00000000
Si       0.01073511       2.71520091      -2.73141252       0.00000000
