10
Lattice="16.28999089631971 0.0 0.0 0.0 16.28999089631971 0.0 0.0 0.0 34.31420841018396" Properties=species:S:1:pos:R:3:initial_magmoms:R:1 pbc="T T T"
Si      -1.39351176       1.45536489       1.17769861       0.00000000
Si       1.17253791       1.76870304      -1.10539853       0.00000000
Si      -1.78012233      -1.00678716      -1.25305265       0.00000000
Si       1.38891798      -1.14823323       2.79358990       0.00000000
Si      -0.30892356      -2.27963889      -2.60925387       0.00000000
Si       2.41150644       0.44095401      -2.61165586       0.00000000
Si       0.27686484       3.05817057       1.94973441       0.00000000
Si       1.15779546      -3.62110410      -1.00928438       0.00000000
Si       2.29631985       3.20388462       0.62077869       0.00000000
Si      -3.04535034       0.45006012      -2.62339133       0.00000000
