10
Lattice="16.28999089631971 0.0 0.0 0.0 16.28999089631971 0.0 0.0 0.0 34.31420841018396" Properties=species:S:1:pos:R:3:initial_magmoms:R:1 pbc="T T T"
Si      -1.51685964       1.81789884      -0.22067480       0.00000000
Si       0.59559498      -0.84486456       2.15256581       0.00000000
Si       2.01945501       0.14571405      -1.32895572       0.00000000
Si      -1.67037660      -1.60280568      -0.77203581       0.00000000
Si       0.89567307      -1.28946753      -3.05513294       0.00000000
Si      -0.27686484      -3.05817057      -1.94973441       0.00000000
Si      -1.15064415       3.06151002       1.62920521       0.00000000
Si      -3.19981212      -0.14618646      -1.88000790       0.00000000
Si       1.48110309       0.93768498       3.37868179       0.00000000
Si      -1.22482881       3.18148587      -2.16821310       0.00000000
