10
Lattice="16.28999089631971 0.0 0.0 0.0 16.28999089631971 0.0 0.0 0.0 34.31420841018396" Properties=species:S:1:pos:R:3:initial_magmoms:R:1 pbc="T T T"
Si       1.35371529       1.36306575       1.37592847       0.00000000
Si      -1.36055709      -1.35550719       1.38296288       0.00000000
Si      -1.52383176       1.10731275      -1.44553488       0.00000000
Si       1.29821526      -1.31673699      -1.53989900       0.00000000
Si       2.71018359      -2.70472644      -0.02197140       0.00000000
Si      -0.36357651      -2.40736878      -2.95811087       0.00000000
Si       2.70557352       2.71870719       0.00206572       0.00000000
Si      -2.70878265      -2.71673217       0.02681314       0.00000000
Si      -2.72319930       2.70296712      -0.01445315       0.00000000
Si      -0.24531111       2.71555885      -2.71430829       0.00000000
