10
Lattice="16.28999089631971 0.0 0.0 0.0 16.28999089631971 0.0 0.0 0.0 34.31420841018396" Properties=species:S:1:pos:R:3:initial_magmoms:R:1 pbc="T T T"
Si      -1.36754128      -0.26160763       1.88700800       0.00000000
Si       1.26129723       1.94973218       0.32876461       0.00000000
Si      -1.53637084       0.90217115      -1.56297875       0.00000000
Si       0.89962665      -2.15212959      -0.50301226       0.00000000
Si       2.13211176       2.28185270      -1.86370864       0.00000000
Si      -2.03388373       1.98990332       2.37149058       0.00000000
Si      -2.96374951      -1.89253215       1.16692394       0.00000000
Si      -0.26712831       3.38119964       1.58061627       0.00000000
Si      -0.71020653      -3.25665675      -1.76200127       0.00000000
Si       0.11575348      -0.76297310       3.69420111       0.00000000
