10
Lattice="16.28999089631971 0.0 0.0 0.0 16.28999089631971 0.0 0.0 0.0 34.31420841018396" Properties=species:S:1:pos:R:3:initial_magmoms:R:1 pbc="T T T"
Si       1.49926644      -1.24662483      -1.23630731       0.00000000
Si      -1.27306350       1.49312511      -1.24478292       0.00000000
Si       0.83883726       1.85104899       1.17951726       0.00000000
Si      -1.13614605      -1.47662334       1.46772246       0.00000000
Si       0.54680643       0.48746196       3.12705556       0.00000000
Si      -2.00681397       0.32645160       2.80734990       0.00000000
Si       0.11047878      -2.58152517      -2.59559680       0.00000000
Si      -2.60328861       0.13348026      -2.59940568       0.00000000
Si       2.82484890       0.13385493      -2.59569975       0.00000000
Si       0.10849140       2.84718249      -2.59552817       0.00000000
