10
Lattice="16.28999089631971 0.0 0.0 0.0 16.28999089631971 0.0 0.0 0.0 34.31420841018396" Properties=species:S:1:pos:R:3:initial_magmoms:R:1 pbc="T T T"
Si      -0.00845451      -1.33392294      -1.95546489       0.00000000
Si      -1.18416897       2.05657992      -0.11351146       0.00000000
Si       2.35683720       0.42187842      -0.07140791       0.00000000
Si      -0.92706390      -1.43265663       1.86851263       0.00000000
Si       3.08705274      -1.80804339      -0.47779130       0.00000000
Si       1.10146464      -2.68655006       2.36383851       0.00000000
Si       1.45202544      -3.13340431      -1.51088975       0.00000000
Si      -1.97392283      -2.67000919      -1.87592451       0.00000000
Si      -2.61516076      -2.74950602       0.43935937       0.00000000
Si       2.94089886       2.05400610      -1.70517691       0.00000000
