10
Lattice="16.28999089631971 0.0 0.0 0.0 16.28999089631971 0.0 0.0 0.0 34.31420841018396" Properties=species:S:1:pos:R:3:initial_magmoms:R:1 pbc="T T T"
Si       1.21771008       1.32188952      -1.51617415       0.00000000
Si      -0.06072912       0.35141277       2.37619163       0.00000000
Si      -1.55576016      -1.31568205      -1.44957023       0.00000000
Si      -2.01394899       1.71136713       2.14824222       0.00000000
Si       2.29982220       2.87097078      -0.17870850       0.00000000
Si       2.55946851      -0.00897416      -2.92185648       0.00000000
Si       3.51907983       1.14862908       1.38389280       0.00000000
Si      -0.16646751      -2.70656951      -2.90843962       0.00000000
Si      -0.16672815       2.71994619      -2.91451323       0.00000000
Si      -2.86036110       0.02766694      -2.93070955       0.00000000
