10
Lattice="16.28999089631971 0.0 0.0 0.0 16.28999089631971 0.0 0.0 0.0 34.31420841018396" Properties=species:S:1:pos:R:3:initial_magmoms:R:1 pbc="T T T"
Si       1.08211212       1.54908126       1.33746565       0.00000000
Si      -1.21771008      -1.32188952       1.51617415       0.00000000
Si       1.34175843      -1.33086368      -1.40568233       0.00000000
Si      -1.38443823       1.39805667      -1.39833909       0.00000000
Si       2.30136975      -0.17326044       2.90006694       0.00000000
Si       2.65365729       2.68024257      -0.04018196       0.00000000
Si      -2.61614142       2.76490170       0.20530202       0.00000000
Si      -2.77347024      -2.63757157       0.06660392       0.00000000
Si       2.56890042      -2.85971669       0.03733388       0.00000000
Si      -0.01866834      -2.66725034      -2.77886909       0.00000000
