10
Lattice="16.28999089631971 0.0 0.0 0.0 16.28999089631971 0.0 0.0 0.0 34.31420841018396" Properties=species:S:1:pos:R:3:initial_magmoms:R:1 pbc="T T T"
Si       1.33123509      -1.78283299       0.63954857       0.00000000
Si       1.18400607       1.56214584       1.28551391       0.00000000
Si       0.18427248       0.37232424      -2.31737705       0.00000000
Si      -2.29141656      -0.29717847       0.49707590       0.00000000
Si      -3.04375392       1.29132459      -1.08058934       0.00000000
Si      -0.27249912       3.34045998       1.00393136       0.00000000
Si       0.25593219      -2.40031032       2.60019491       0.00000000
Si      -2.45969226      -2.56047686      -0.30663194       0.00000000
Si       0.23478777      -1.99422994      -2.98715645       0.00000000
Si       3.47279994      -0.75746871       0.84018386       0.00000000
