10
Lattice="16.28999089631971 0.0 0.0 0.0 16.28999089631971 0.0 0.0 0.0 34.31420841018396" Properties=species:S:1:pos:R:3:initial_magmoms:R:1 pbc="T T T"
Si       1.28412441      -0.05308911      -1.96512575       0.00000000
Si      -0.74678247      -1.89390798       1.22771502       0.00000000
Si       1.91321163       0.79009758       1.27736085       0.00000000
Si      -1.68533082       1.90873188      -0.05234777       0.00000000
Si      -2.13457644      -0.56689200       2.65528297       0.00000000
Si       0.60137793       2.17860831       2.66337770       0.00000000
Si       3.26190960       0.80441649      -1.01994036       0.00000000
Si      -3.51945450       0.79829145       1.17697114       0.00000000
Si      -0.62561745       3.62314035       1.14825013       0.00000000
Si       1.47633012      -2.19027195      -2.87712930       0.00000000
