10
Lattice="16.28999089631971 0.0 0.0 0.0 16.28999089631971 0.0 0.0 0.0 34.31420841018396" Properties=species:S:1:pos:R:3:initial_magmoms:R:1 pbc="T T T"
Si       1.23170319      -1.36684503      -1.60364111       0.00000000
Si       1.96398756       0.74582136       1.27741575       0.00000000
Si      -1.54909755      -1.24206363       1.45464874       0.00000000
Si      -1.46671902       1.34146521      -1.59996949       0.00000000
Si      -2.67766875      -2.65147443      -0.14521781       0.00000000
Si       2.61614142      -2.76490170      -0.20530202       0.00000000
Si       2.69798238       2.70127296      -0.01715711       0.00000000
Si      -1.15779546       3.62110410       1.00928438       0.00000000
Si      -2.93791779       2.61431694      -0.24376827       0.00000000
Si       2.59359606      -0.00185706      -2.98393092       0.00000000
