10
Lattice="16.28999089631971 0.0 0.0 0.0 16.28999089631971 0.0 0.0 0.0 34.31420841018396" Properties=species:S:1:pos:R:3:initial_magmoms:R:1 pbc="T T T"
Si       1.38425904       1.85986188      -0.53863043       0.00000000
Si       0.44396766      -2.32549524       0.63186219       0.00000000
Si      -1.99744722       0.04627989      -1.46758520       0.00000000
Si      -1.49393961       0.54659466       2.14577159       0.00000000
Si      -1.99627434      -2.12077881      -0.26720489       0.00000000
Si      -2.78405874      -1.40649489       1.86864989       0.00000000
Si       2.99219607       1.76326218       1.26279789       0.00000000
Si       2.88075618      -2.36468898       0.33147544       0.00000000
Si       0.06760350       3.87643356      -0.14854629       0.00000000
Si      -0.01280394       0.64264050       3.95317059       0.00000000
