10
Lattice="16.28999089631971 0.0 0.0 0.0 16.28999089631971 0.0 0.0 0.0 34.31420841018396" Properties=species:S:1:pos:R:3:initial_magmoms:R:1 pbc="T T T"
Si      -1.14512184      -1.53399672      -1.36443663       0.00000000
Si       1.99405890      -0.10156815      -1.26399889       0.00000000
Si      -0.97971318       2.14439931      -0.17136525       0.00000000
Si      -0.07102440      -0.87130323       2.21615007       0.00000000
Si       0.61069581       3.36896748       1.01405405       0.00000000
Si      -2.33100126      -0.61317189       2.70958867       0.00000000
Si      -0.82950309      -0.65963097      -3.51597302       0.00000000
Si       3.04880382      -2.02662261      -0.30244560       0.00000000
Si       1.44010116      -3.56803128       0.45637923       0.00000000
Si      -0.04103451      -3.66407712      -1.35101977       0.00000000
