10
Lattice="16.28999089631971 0.0 0.0 0.0 16.28999089631971 0.0 0.0 0.0 34.31420841018396" Properties=species:S:1:pos:R:3:initial_magmoms:R:1 pbc="T T T"
Si       1.36042677       1.33638666       1.37318676       0.00000000
Si       1.35584928      -1.35754344      -1.36018167       0.00000000
Si      -1.36111095       1.35792855      -1.36103952       0.00000000
Si      -1.36550925      -1.36120869       1.38660362       0.00000000
Si       2.58756876      -0.19246635       2.81620297       0.00000000
Si       2.71308321      -2.71480995      -0.00058334       0.00000000
Si      -2.71722087      -2.71427238      -0.00024020       0.00000000
Si       2.71308321      -0.00013782      -2.71844174       0.00000000
Si       2.71428867       2.71726064      -0.00092648       0.00000000
Si      -2.71827972       2.71499633      -0.00518145       0.00000000
