10
Lattice="16.28999089631971 0.0 0.0 0.0 16.28999089631971 0.0 0.0 0.0 34.31420841018396" Properties=species:S:1:pos:R:3:initial_magmoms:R:1 pbc="T T T"
Si      -2.01945501      -0.14571405       1.32895572       0.00000000
Si       1.27661472       1.10133432      -1.78557515       0.00000000
Si      -1.12378194      -1.43518158      -1.72617722       0.00000000
Si       1.85393232       1.07113266       1.36903474       0.00000000
Si       2.97945729      -1.08652671       1.47880595       0.00000000
Si       3.20412897       1.91500353      -0.63896523       0.00000000
Si      -1.42386003      -0.99057861       3.48152153       0.00000000
Si      -2.29631985      -3.20388462      -0.62077869       0.00000000
Si      -3.53631465       1.67218479       1.10828092       0.00000000
Si      -3.68983161      -1.74851973       0.55691991       0.00000000
