10
Lattice="16.28999089631971 0.0 0.0 0.0 16.28999089631971 0.0 0.0 0.0 34.31420841018396" Properties=species:S:1:pos:R:3:initial_magmoms:R:1 pbc="T T T"
Si       0.58919301      -0.74417607       2.12195752       0.00000000
Si      -0.88550811      -1.78254954      -1.22611598       0.00000000
Si       1.95981732       1.05814953      -0.89059146       0.00000000
Si      -2.00738412       1.32007644       0.30313189       0.00000000
Si      -1.35084825      -0.24306309       3.31911229       0.00000000
Si      -2.73944043      -2.41452009       0.19854212       0.00000000
Si       1.41449328       3.38979752      -0.84684082       0.00000000
Si      -1.48110309      -0.93768498      -3.37868179       0.00000000
Si      -2.63174724       2.12382504      -1.74947658       0.00000000
Si       0.73940310      -3.54820635      -1.22265024       0.00000000
