10
Lattice="16.28999089631971 0.0 0.0 0.0 16.28999089631971 0.0 0.0 0.0 34.31420841018396" Properties=species:S:1:pos:R:3:initial_magmoms:R:1 pbc="T T T"
Si       1.25540514      -1.89312606       0.54315991       0.00000000
Si      -0.17402607       0.48891177      -2.28237653       0.00000000
Si       1.56776589       1.59303610       0.71867718       0.00000000
Si      -0.89186121       0.88198947       2.97428862       0.00000000
Si      -0.02990844      -3.14128215      -0.86540482       0.00000000
Si      -0.80268975      -1.78290792      -2.61814125       0.00000000
Si      -0.40364991       2.87462204      -2.02405903       0.00000000
Si       3.27617964      -1.47377259      -0.50472797       0.00000000
Si       1.97330544       1.27422009      -2.84317396       0.00000000
Si      -1.76648760       2.76616322       1.70939756       0.00000000
