10
Lattice="16.28999089631971 0.0 0.0 0.0 16.28999089631971 0.0 0.0 0.0 34.31420841018396" Properties=species:S:1:pos:R:3:initial_magmoms:R:1 pbc="T T T"
Si       1.27307979       1.15416279       1.59855029       0.00000000
Si       1.81516212      -0.84266541      -1.36018167       0.00000000
Si      -0.97495650       1.93157046      -1.18981153       0.00000000
Si      -1.49245722      -1.43676171       1.36526502       0.00000000
Si       1.08012474       3.22635897      -1.07887363       0.00000000
Si       2.77946496       2.28260367       0.22502492       0.00000000
Si       1.17230985      -0.84354507      -3.62094024       0.00000000
Si      -0.08509896       2.59868247       2.90722974       0.00000000
Si       2.76770358      -2.76209982      -0.27053337       0.00000000
Si       2.64344346      -0.13470201       2.93078302       0.00000000
