10
Lattice="16.28999089631971 0.0 0.0 0.0 16.28999089631971 0.0 0.0 0.0 34.31420841018396" Properties=species:S:1:pos:R:3:initial_magmoms:R:1 pbc="T T T"
Si       1.53667710      -1.12409471      -1.41072652       0.00000000
Si      -1.16929620       1.56747267      -1.40218228       0.00000000
Si       1.47873845       1.33146315       1.38087315       0.00000000
Si      -1.32594084      -1.31947860       1.61448441       0.00000000
Si       1.65748048      -0.37711350       3.16291393       0.00000000
Si      -0.89373456       1.00004310       3.43687872       0.00000000
Si       0.18838139      -2.48757164      -2.77399647       0.00000000
Si      -2.52620433       0.23245830      -2.76967288       0.00000000
Si      -2.65292424      -2.67726869       0.04745658       0.00000000
Si       2.90076749      -2.43111129      -0.01417178       0.00000000
