10
Lattice="16.28999089631971 0.0 0.0 0.0 16.28999089631971 0.0 0.0 0.0 34.31420841018396" Properties=species:S:1:pos:R:3:initial_magmoms:R:1 pbc="T T T"
Si      -1.35821133      -1.34469063       1.38445212       0.00000000
Si       1.35718506       1.37368683       1.38589332       0.00000000
Si      -1.40243868       1.36658439      -1.37212988       0.00000000
Si       1.41234300      -1.50785127      -1.44925111       0.00000000
Si      -2.71125873      -2.68907175       0.00953936       0.00000000
Si       2.69591355       2.71637379       0.01399334       0.00000000
Si      -0.00337203      -2.70013266       2.74494262       0.00000000
Si       2.72887117      -2.72083725       0.02590724       0.00000000
Si       2.70947660       0.01516599       2.74480536       0.00000000
Si      -2.71821456       0.01539405       2.74339848       0.00000000
