10
Lattice="16.28999089631971 0.0 0.0 0.0 16.28999089631971 0.0 0.0 0.0 34.31420841018396" Properties=species:S:1:pos:R:3:initial_magmoms:R:1 pbc="T T T"
Si      -1.35690813      -1.33501437      -1.36749060       0.00000000
Si      -1.39887117       1.29521790       1.37212302       0.00000000
Si       1.35928647       1.38012138      -1.36975534       0.00000000
Si       1.16929620      -1.56747267       1.40218228       0.00000000
Si       0.13331736       2.46887982       2.70646607       0.00000000
Si       2.70597330      -2.69156738      -0.00854424       0.00000000
Si      -0.00011403      -2.69492312      -2.72777521       0.00000000
Si      -2.71077003      -2.71588835       0.00662265       0.00000000
Si       2.71553227       2.71671588      -0.01314235       0.00000000
Si       2.71317022       0.02050911      -2.72715755       0.00000000
