10
Lattice="16.28999089631971 0.0 0.0 0.0 16.28999089631971 0.0 0.0 0.0 34.31420841018396" Properties=species:S:1:pos:R:3:initial_magmoms:R:1 pbc="T T T"
Si      -0.98249877      -1.68534711      -1.35819144       0.00000000
Si       1.26936567      -1.39839876       1.55385117       0.00000000
Si       1.76314815       1.11014721      -1.35777967       0.00000000
Si      -1.91778912       2.03335038       0.40257452       0.00000000
Si       1.18827405       0.41852268       3.13604589       0.00000000
Si      -2.20472281      -0.16733088      -2.74476075       0.00000000
Si       0.35932482       2.61532692       2.40628521       0.00000000
Si       0.49792014       2.56699449      -2.72811835       0.00000000
Si      -2.27222042      -3.12005628       0.05143703       0.00000000
Si      -3.55746383       1.10926755      -1.33149497       0.00000000
