10
Lattice="16.28999089631971 0.0 0.0 0.0 16.28999089631971 0.0 0.0 0.0 34.31420841018396" Properties=species:S:1:pos:R:3:initial_magmoms:R:1 pbc="T T T"
Si      -1.35570267      -1.35457866      -1.35860321       0.00000000
Si       1.35916339      -1.35365013       1.35808850       0.00000000
Si      -1.35523026       1.36086660       1.35980421       0.00000000
Si       1.35936502       1.36088289      -1.35808850       0.00000000
Si      -2.71363707      -2.71088406      -0.00157845       0.00000000
Si       0.00213399      -2.71239903      -2.71576523       0.00000000
Si      -2.71326240       0.00322542      -2.71511326       0.00000000
Si       2.71620993      -2.71277370       0.00030883       0.00000000
Si       2.71461840       2.71585251      -0.00137257       0.00000000
Si      -2.71246419       2.71813311       0.00020589       0.00000000
