10
Lattice="16.28999089631971 0.0 0.0 0.0 16.28999089631971 0.0 0.0 0.0 34.31420841018396" Properties=species:S:1:pos:R:3:initial_magmoms:R:1 pbc="T T T"
Si       1.11470841       1.35974259      -1.55639042       0.00000000
Si      -0.16819425       1.58604327       1.79147719       0.00000000
Si       1.67014854      -1.39010715       1.14503146       0.00000000
Si      -1.58819355      -1.45114578      -1.33454894       0.00000000
Si       2.15436879       2.08360503       1.89743953       0.00000000
Si      -0.59658867       0.24172731       3.66829387       0.00000000
Si       2.00112876       3.15960840      -0.24414573       0.00000000
Si       2.39381550      -0.08351883      -2.92909678       0.00000000
Si       0.72006687      -1.77484437       3.27820973       0.00000000
Si      -0.34195968       2.61930168      -2.93654297       0.00000000
