10
Lattice="16.28999089631971 0.0 0.0 0.0 16.28999089631971 0.0 0.0 0.0 34.31420841018396" Properties=species:S:1:pos:R:3:initial_magmoms:R:1 pbc="T T T"
Si       0.53944335       2.26134231       0.34458347       0.00000000
Si       0.17272287      -0.70169175       2.26810182       0.00000000
Si      -2.19076065       0.02143764      -1.01333345       0.00000000
Si       1.85995962      -0.91114857      -1.38986347       0.00000000
Si       1.15325055      -2.72534958       1.70473083       0.00000000
Si       2.86692597       1.93456782       0.35824054       0.00000000
Si      -2.73608469       2.35308563      -0.96958281       0.00000000
Si       2.79710703      -2.48477886       0.08012372       0.00000000
Si      -0.63428373       3.46198242      -1.36412780       0.00000000
Si      -1.97097597      -0.55631979       3.18463483       0.00000000
