10
Lattice="16.28999089631971 0.0 0.0 0.0 16.28999089631971 0.0 0.0 0.0 34.31420841018396" Properties=species:S:1:pos:R:3:initial_magmoms:R:1 pbc="T T T"
Si      -0.56682684      -1.05178014       1.95007755       0.00000000
Si      -1.78948908       1.15186168      -0.96989164       0.00000000
Si       0.55654785      -1.92438657      -1.30109257       0.00000000
Si       1.59620823       1.63092452       0.72008407       0.00000000
Si      -0.71418618       1.76933902      -2.93053798       0.00000000
Si       2.96374951       1.89253215      -1.16692394       0.00000000
Si      -1.16616852       0.72132513       3.44604062       0.00000000
Si       1.38730527      -2.25569259       2.66216640       0.00000000
Si      -2.79766089      -1.90987218       1.76876118       0.00000000
Si       2.25354298      -1.36412460      -2.92892521       0.00000000
