10
Lattice="16.28999089631971 0.0 0.0 0.0 16.28999089631971 0.0 0.0 0.0 34.31420841018396" Properties=species:S:1:pos:R:3:initial_magmoms:R:1 pbc="T T T"
Si       0.84856239       0.27706032       2.23666998       0.00000000
Si       2.27932938      -0.16252533      -0.81396779       0.00000000
Si      -1.51309665      -1.95403437      -0.68827478       0.00000000
Si      -0.33326082       2.25437310      -1.38310357       0.00000000
Si      -1.82281028      -1.03987215      -2.91355244       0.00000000
Si       0.77480127       1.66011390      -3.35932857       0.00000000
Si       2.60794755       2.32345899       1.68153441       0.00000000
Si       2.78277183       1.63440828      -2.16004631       0.00000000
Si       2.61197118      -1.95660819      -2.27994022       0.00000000
Si      -0.83784357       0.96176160       3.82401184       0.00000000
