10
Lattice="16.28999089631971 0.0 0.0 0.0 16.28999089631971 0.0 0.0 0.0 34.31420841018396" Properties=species:S:1:pos:R:3:initial_magmoms:R:1 pbc="T T T"
Si      -0.87469222      -0.38001312      -2.08680744       0.00000000
Si      -1.91098057      -0.75170205       1.17562259       0.00000000
Si       0.95779661       1.98674469       1.10106464       0.00000000
Si       2.00776531      -1.62212562      -0.15639194       0.00000000
Si      -0.45357943      -1.96296129       2.55473885       0.00000000
Si       2.28622657       0.76079187       2.57621956       0.00000000
Si       0.85222927      -3.38533893       1.12567824       0.00000000
Si       2.65858339       2.70606222      -0.44274416       0.00000000
Si      -0.14415347       1.19216736      -3.63935466       0.00000000
Si       3.69146713      -0.51093585       1.18083836       0.00000000
