10
Lattice="16.28999089631971 0.0 0.0 0.0 16.28999089631971 0.0 0.0 0.0 34.31420841018396" Properties=species:S:1:pos:R:3:initial_magmoms:R:1 pbc="T T T"
Si      -1.35353930      -1.34115570      -1.38512811       0.00000000
Si       1.36361635       1.37352393      -1.38677519       0.00000000
Si      -1.31089931       1.45371960       1.38632911       0.00000000
Si       1.19177314      -1.57270176       1.49599738       0.00000000
Si      -2.69849781      -2.70076797      -0.01036290       0.00000000
Si       2.70835585      -2.69850366      -0.01276489       0.00000000
Si       2.69384146       2.73316878      -0.03215243       0.00000000
Si       0.00350724      -2.70027927      -2.74290778       0.00000000
Si      -2.70993339       2.74001058      -0.02051991       0.00000000
Si      -2.71270269       0.01249443      -2.74321661       0.00000000
