10
Lattice="16.28999089631971 0.0 0.0 0.0 16.28999089631971 0.0 0.0 0.0 34.31420841018396" Properties=species:S:1:pos:R:3:initial_magmoms:R:1 pbc="T T T"
Si       0.89912655       1.65944601      -1.62193060       0.00000000
Si      -1.63967471      -0.92408283      -1.73406949       0.00000000
Si      -1.91009114       0.51313500       1.85461537       0.00000000
Si       1.91778912      -2.03335038      -0.40257452       0.00000000
Si       2.27711394       0.58197654       2.00371069       0.00000000
Si      -2.86914860      -2.44851732      -0.42772685       0.00000000
Si      -0.28693369      -2.20068126      -3.14733527       0.00000000
Si      -3.71481137      -0.77520852       0.94583737       0.00000000
Si       2.53811232       2.99556810      -0.43757503       0.00000000
Si       2.41570926       0.53364411      -3.13069287       0.00000000
