10
Lattice="16.28999089631971 0.0 0.0 0.0 16.28999089631971 0.0 0.0 0.0 34.31420841018396" Properties=species:S:1:pos:R:3:initial_magmoms:R:1 pbc="T T T"
Si       1.31550090      -1.30759830      -1.53655680       0.00000000
Si      -1.66307902       1.17526064      -1.38128492       0.00000000
Si       0.07531551      -1.36360332       2.06276548       0.00000000
Si       1.32034229       2.11762574       0.16714460       0.00000000
Si       2.38365738      -1.96827183       1.77617305       0.00000000
Si      -1.23087274       3.49478234       0.44110940       0.00000000
Si      -0.33713818       2.49473924      -2.99576933       0.00000000
Si       3.66726051       1.41679247       0.28020998       0.00000000
Si       2.56362930       0.06362794      -3.00994110       0.00000000
Si      -0.10751433      -2.62451448      -2.99535755       0.00000000
