10
Lattice="16.28999089631971 0.0 0.0 0.0 16.28999089631971 0.0 0.0 0.0 34.31420841018396" Properties=species:S:1:pos:R:3:initial_magmoms:R:1 pbc="T T T"
Si      -0.63274337       1.10394072       1.97557302       0.00000000
Si      -1.63970972      -1.74177567       0.22746901       0.00000000
Si       2.30834187      -0.60466851      -0.28659243       0.00000000
Si      -0.07531551       1.36360332      -2.06276548       0.00000000
Si      -0.70256231      -3.31540596       1.69745621       0.00000000
Si       0.95372900      -2.21511420       2.93318017       0.00000000
Si       2.85449670      -1.99591596       1.52392916       0.00000000
Si       1.24018539       0.05600502      -3.59932227       0.00000000
Si      -2.96022599       1.43071521       1.96191596       0.00000000
Si      -0.06977659      -0.29071134       3.88152248       0.00000000
