10
Lattice="16.28999089631971 0.0 0.0 0.0 16.28999089631971 0.0 0.0 0.0 34.2284985734139" Properties=species:S:1:pos:R:3:initial_magmoms:R:1 pbc="T T T"
Si      -1.87688493      -0.74579760      -1.14730568       0.00000000
Si      -1.31813793       0.21065576       1.91758425       0.00000000
Si       0.83318463       1.97139788      -1.14480700       0.00000000
Si       1.63502730      -1.84532373       0.16854122       0.00000000
Si      -0.48889548      -2.04275853      -2.49628580       0.00000000
Si      -1.48566429      -2.11524903       2.20072255       0.00000000
Si       2.25129429       0.69427166      -2.49104883       0.00000000
Si       3.47749146      -0.78850998      -1.06135788       0.00000000
Si       0.72324342      -3.55925979      -1.07997819       0.00000000
Si       1.11394278      -2.68227135       2.48735215       0.00000000
