10
Lattice="16.28999089631971 0.0 0.0 0.0 16.28999089631971 0.0 0.0 0.0 34.2284985734139" Properties=species:S:1:pos:R:3:initial_magmoms:R:1 pbc="T T T"
Si      -0.75899997      -1.63471779       1.51300317       0.00000000
Si      -1.37080350      -0.05833449      -1.92371115       0.00000000
Si      -0.64861893       2.06452944       0.95322999       0.00000000
Si       2.28283173      -0.38402046      -0.48785906       0.00000000
Si       0.37965474       0.33451515      -3.41994235       0.00000000
Si       3.07648053       0.46791396       1.52207373       0.00000000
Si      -2.99447667       1.43619156       1.34781634       0.00000000
Si      -0.76211136      -3.50194994       0.08923375       0.00000000
Si      -2.68438023      -0.62773515       2.51254434       0.00000000
Si      -0.10886607       3.68683425      -0.70130810       0.00000000
