10
Lattice="16.28999089631971 0.0 0.0 0.0 16.28999089631971 0.0 0.0 0.0 34.2284985734139" Properties=species:S:1:pos:R:3:initial_magmoms:R:1 pbc="T T T"
Si       1.94502437      -1.25112576      -0.44168479       0.00000000
Si       0.10858914       0.28872396       2.44377925       0.00000000
Si      -1.94321034      -1.47160765       0.40796970       0.00000000
Si      -0.18103729       1.93303656      -1.62722373       0.00000000
Si      -1.89536661      -1.53500833      -1.96738674       0.00000000
Si      -1.32251247       0.53387217      -3.28227525       0.00000000
Si       3.20059241      -0.79897074       1.43174467       0.00000000
Si      -1.26404145       3.52875609       0.01488941       0.00000000
Si       1.57667489      -1.40633362       3.14392358       0.00000000
Si       1.41408440       2.24041257       2.71343151       0.00000000
