10
Lattice="16.28999089631971 0.0 0.0 0.0 16.28999089631971 0.0 0.0 0.0 34.2284985734139" Properties=species:S:1:pos:R:3:initial_magmoms:R:1 pbc="T T T"
Si       1.16970345      -1.50622227       1.31124317       0.00000000
Si      -1.40776551      -1.35713619      -1.25192275       0.00000000
Si      -1.55411487       1.22930856       1.30864865       0.00000000
Si       1.28296782       1.03873185      -1.72655288       0.00000000
Si      -2.34031914       0.29199825      -2.59760019       0.00000000
Si       2.56205862       2.57395032      -0.36019696       0.00000000
Si       2.50926273      -0.13263318       2.67148446       0.00000000
Si      -0.43707699       1.87914924      -3.14063563       0.00000000
Si      -0.20921247       2.58022197       2.66960190       0.00000000
Si       2.43926460      -2.98281303      -0.13869738       0.00000000
