10
Lattice="16.28999089631971 0.0 0.0 0.0 16.28999089631971 0.0 0.0 0.0 34.2284985734139" Properties=species:S:1:pos:R:3:initial_magmoms:R:1 pbc="T T T"
Si      -1.35969372       1.35461124      -1.36065204       0.00000000
Si       1.35708732      -1.36259334      -1.36099432       0.00000000
Si       1.36011726       1.36572102       1.36229500       0.00000000
Si      -1.37885076      -1.36735002       1.37410384       0.00000000
Si      -0.12129534       2.58110163       2.74697546       0.00000000
Si       2.64534939      -0.06341697       2.71815505       0.00000000
Si       2.71345788       2.71318095      -0.00239600       0.00000000
Si      -2.71542897      -2.71467963      -0.00547656       0.00000000
Si      -2.71383255       2.71639008      -0.00311480       0.00000000
Si      -0.00042354       2.71329498      -2.71764162       0.00000000
