10
Lattice="16.28999089631971 0.0 0.0 0.0 16.28999089631971 0.0 0.0 0.0 34.2284985734139" Properties=species:S:1:pos:R:3:initial_magmoms:R:1 pbc="T T T"
Si       1.00361061       0.46139796       2.03426926       0.00000000
Si       1.01283075      -2.00551077      -0.64414647       0.00000000
Si       0.17330931       1.95097185      -1.27593645       0.00000000
Si      -2.14816230      -0.81735075       0.49737459       0.00000000
Si      -0.88638777       3.13321860       0.49651888       0.00000000
Si      -1.22416092      -2.35507788       2.03009338       0.00000000
Si       0.37913346      -2.25787545      -2.89915545       0.00000000
Si       3.26847447       0.78395625       1.60076509       0.00000000
Si      -0.92413170       1.33525872      -3.35210142       0.00000000
Si       0.46936377       2.72354139       2.51586451       0.00000000
