10
Lattice="16.28999089631971 0.0 0.0 0.0 16.28999089631971 0.0 0.0 0.0 34.2284985734139" Properties=species:S:1:pos:R:3:initial_magmoms:R:1 pbc="T T T"
Si      -0.63157959       0.89687853      -2.12459832       0.00000000
Si       2.22228180      -1.00642878      -0.43685857       0.00000000
Si      -0.53564778       1.63328427       1.88554635       0.00000000
Si      -1.65182229      -1.92409335       0.72848554       0.00000000
Si       0.29072763      -1.96843473       2.63891603       0.00000000
Si      -2.75224437       1.65309291       1.11420671       0.00000000
Si       0.37450710       0.24949764       3.59084534       0.00000000
Si       2.40598413      -2.35442628       1.48500424       0.00000000
Si      -3.56456151      -0.57782259       1.02973073       0.00000000
Si      -1.48528962      -0.94765446      -3.33971070       0.00000000
