10
Lattice="16.28999089631971 0.0 0.0 0.0 16.28999089631971 0.0 0.0 0.0 34.2284985734139" Properties=species:S:1:pos:R:3:initial_magmoms:R:1 pbc="T T T"
Si       0.53424684      -2.26214343      -0.48159524       0.00000000
Si       1.81429875       1.57866390      -0.15108468       0.00000000
Si      -1.35575154       0.40967721      -2.01934563       0.00000000
Si      -2.55384846      -0.47345256      -0.14858600       0.00000000
Si      -1.08748782      -0.40291686       2.34787094       0.00000000
Si      -1.23786081       2.69210169      -1.67432217       0.00000000
Si       3.01299840       0.24737994      -1.71043326       0.00000000
Si       2.79911070      -1.93958514      -0.91509942       0.00000000
Si      -0.46936377      -2.72354139      -2.51586451       0.00000000
Si      -2.06593038       3.13621596       0.53191117       0.00000000
