10
Lattice="16.28999089631971 0.0 0.0 0.0 16.28999089631971 0.0 0.0 0.0 34.2284985734139" Properties=species:S:1:pos:R:3:initial_magmoms:R:1 pbc="T T T"
Si       1.72004481      -0.84041739       1.41408275       0.00000000
Si      -1.90324215      -1.58715099       0.54303543       0.00000000
Si      -0.80907543       1.84679730       1.57054131       0.00000000
Si       1.08748782       0.40291686      -2.34787094       0.00000000
Si      -1.46636064      -0.07053570      -2.49645694       0.00000000
Si      -3.11841099       1.22144049      -1.18054158       0.00000000
Si       0.43707699      -1.87914924       3.14063563       0.00000000
Si      -2.25380295       2.97479835       0.14464972       0.00000000
Si       1.62173466      -1.85922657      -2.82946619       0.00000000
Si      -0.97068852      -3.23628543       1.88871287       0.00000000
