10
Lattice="16.28999089631971 0.0 0.0 0.0 16.28999089631971 0.0 0.0 0.0 34.2284985734139" Properties=species:S:1:pos:R:3:initial_magmoms:R:1 pbc="T T T"
Si       0.33492240       2.17559466      -0.84838804       0.00000000
Si       0.10099800      -0.17826962       2.38634380       0.00000000
Si      -2.36103092       0.58158558       0.01324644       0.00000000
Si       0.63776979      -2.04246368      -1.20261897       0.00000000
Si       2.82848157      -1.78164449       0.01143232       0.00000000
Si      -2.97052127      -1.65507817      -0.35457321       0.00000000
Si      -1.03387417       1.75156596      -2.81430295       0.00000000
Si      -1.70736209      -2.12370191      -2.28975092       0.00000000
Si      -0.92503742       1.92207339       2.85096170       0.00000000
Si      -0.28777914       3.47268591       1.13621565       0.00000000
