10
Lattice="16.28999089631971 0.0 0.0 0.0 16.28999089631971 0.0 0.0 0.0 34.2284985734139" Properties=species:S:1:pos:R:3:initial_magmoms:R:1 pbc="T T T"
Si       1.23626439      -1.39035150       1.43379838       0.00000000
Si       1.36024758       1.35270531      -1.36544403       0.00000000
Si      -1.35213516      -1.36405944      -1.36236346       0.00000000
Si      -1.50623856       1.16566353       1.40634711       0.00000000
Si      -0.62174043      -2.36602476       2.59821832       0.00000000
Si      -2.30923782      -0.60356079       2.91869993       0.00000000
Si      -2.71837746       2.68216479      -0.00996050       0.00000000
Si       2.70917361       2.69860140       0.00865981       0.00000000
Si       2.70094716      -2.71353933       0.00287520       0.00000000
Si       0.00301365       2.70690930      -2.72373430       0.00000000
