10
Lattice="16.28999089631971 0.0 0.0 0.0 16.28999089631971 0.0 0.0 0.0 34.2284985734139" Properties=species:S:1:pos:R:3:initial_magmoms:R:1 pbc="T T T"
Si      -1.06373211      -2.01564219       0.68611064       0.00000000
Si      -1.02603542       2.10034301       0.46461790       0.00000000
Si      -0.10099800       0.17826962      -2.38634380       0.00000000
Si       1.97838792      -0.13546112       1.37475418       0.00000000
Si      -2.46202892       0.75985520      -2.37309736       0.00000000
Si       3.13305570      -1.75089711      -0.03234595       0.00000000
Si      -3.20050349       1.74878851      -0.31483391       0.00000000
Si      -1.98662156      -2.97367338      -1.29411180       0.00000000
Si       2.83569804       2.06722544       1.61883774       0.00000000
Si      -0.38877714       3.65095552      -1.25012815       0.00000000
