10
Lattice="16.28999089631971 0.0 0.0 0.0 16.28999089631971 0.0 0.0 0.0 34.2284985734139" Properties=species:S:1:pos:R:3:initial_magmoms:R:1 pbc="T T T"
Si      -0.63977346       1.59997122       1.54712900       0.00000000
Si       2.21385987       0.24617448      -0.67871728       0.00000000
Si      -0.91522107       0.60843150      -2.05535403       0.00000000
Si       0.03057633      -2.08165023       1.14888020       0.00000000
Si       2.01727215      -1.67278752       2.54937423       0.00000000
Si       3.44512323      -1.00592379       0.79553921       0.00000000
Si       0.10018350       2.66732460      -2.66705187       0.00000000
Si      -2.93293305       2.13454386       1.12016247       0.00000000
Si       2.29850271      -0.02443500      -3.03884203       0.00000000
Si       0.14009400      -0.52883856      -3.79987889       0.00000000
