10
Lattice="16.28999089631971 0.0 0.0 0.0 16.28999089631971 0.0 0.0 0.0 34.2284985734139" Properties=species:S:1:pos:R:3:initial_magmoms:R:1 pbc="T T T"
Si      -1.22413811       1.61126019      -1.32460941       0.00000000
Si       1.31367447       1.33279893       1.59695344       0.00000000
Si      -1.40114363      -1.44911768       1.50974602       0.00000000
Si       1.90169460       0.76778028      -2.33315268       0.00000000
Si       1.04438448      -1.43490628      -2.57723624       0.00000000
Si      -2.74951484       2.65155588       0.24161911       0.00000000
Si       0.69496398       2.93570235      -2.36385566       0.00000000
Si       2.86451505       2.75017554       0.53165483       0.00000000
Si      -0.01931994       2.61956232       3.08323440       0.00000000
Si      -1.96003886       0.80089785      -3.48737253       0.00000000
