10
Lattice="16.28999089631971 0.0 0.0 0.0 16.28999089631971 0.0 0.0 0.0 34.2284985734139" Properties=species:S:1:pos:R:3:initial_magmoms:R:1 pbc="T T T"
Si      -1.14332994      -1.90771050      -0.50750623       0.00000000
Si       1.65297888       0.15864831       1.64180508       0.00000000
Si      -1.77961734       1.21314888       0.90366710       0.00000000
Si       0.93542067       0.76668885      -2.01181536       0.00000000
Si       2.29687371       2.26584126       0.89216631       0.00000000
Si      -1.73674206       3.08053674      -0.50315921       0.00000000
Si      -1.14592005       1.46551356       3.15867607       0.00000000
Si      -2.02333203      -2.69986225       1.47928808       0.00000000
Si       3.13483131      -0.04957047      -1.94886911       0.00000000
Si       0.36341361       3.05574336      -2.04816604       0.00000000
