10
Lattice="16.28999089631971 0.0 0.0 0.0 16.28999089631971 0.0 0.0 0.0 34.2284985734139" Properties=species:S:1:pos:R:3:initial_magmoms:R:1 pbc="T T T"
Si      -1.89918594       1.41190643       0.09036329       0.00000000
Si      -0.36178461      -2.18358069       0.86276402       0.00000000
Si       1.57102389       0.75955709       1.62605996       0.00000000
Si       0.57122514      -0.63414364      -2.26582519       0.00000000
Si       2.73862593       2.21806595       0.22375182       0.00000000
Si      -2.01784230      -1.57824429       2.58945582       0.00000000
Si      -3.69696663      -0.04743159      -0.47906233       0.00000000
Si       2.86761015      -1.00753112      -2.20233129       0.00000000
Si      -1.05301818      -2.26928238      -2.81245461       0.00000000
Si      -1.72763595       2.87916302      -1.76629420       0.00000000
