10
Lattice="16.28999089631971 0.0 0.0 0.0 16.28999089631971 0.0 0.0 0.0 34.2284985734139" Properties=species:S:1:pos:R:3:initial_magmoms:R:1 pbc="T T T"
Si      -1.56625092      -1.18837179       1.25538576       0.00000000
Si      -1.40986692       1.12153392      -1.50975961       0.00000000
Si       1.16882379       1.64126637       1.33528538       0.00000000
Si       1.59343893      -1.79330094      -1.60320346       0.00000000
Si       2.11036950       0.57730131      -2.48961939       0.00000000
Si       0.23596065       2.16210654      -2.79661496       0.00000000
Si      -0.14978655      -2.41932564       2.69457170       0.00000000
Si       2.58188355       0.30586104       2.69294927       0.00000000
Si      -2.93555574      -2.52947862      -0.32353610       0.00000000
Si      -2.83581207       0.28821897       2.70532630       0.00000000
