10
Lattice="16.28999089631971 0.0 0.0 0.0 16.28999089631971 0.0 0.0 0.0 34.2284985734139" Properties=species:S:1:pos:R:3:initial_magmoms:R:1 pbc="T T T"
Si       1.23929433       0.97691130       1.73271602       0.00000000
Si      -0.18370233       1.34799750      -1.92186281       0.00000000
Si       1.05847533      -2.10331593      -0.26236159       0.00000000
Si      -2.11525650       0.38599155       1.15391179       0.00000000
Si       0.49808304      -0.54387423       3.34094293       0.00000000
Si       0.60509205      -0.15903927      -3.61076633       0.00000000
Si      -2.40598413       2.35442628      -1.48500424       0.00000000
Si       3.37317030      -1.57007907       0.09388882       0.00000000
Si      -1.62673569      -2.96632755      -1.56472246       0.00000000
Si       0.32803173       3.13791012       2.05538826       0.00000000
