10
Lattice="16.28999089631971 0.0 0.0 0.0 16.28999089631971 0.0 0.0 0.0 34.2284985734139" Properties=species:S:1:pos:R:3:initial_magmoms:R:1 pbc="T T T"
Si      -0.28748592      -0.66148803      -2.16296849       0.00000000
Si       1.64597418      -1.45139013       0.77736387       0.00000000
Si       0.52932726       2.25619758       0.38524197       0.00000000
Si      -2.38764159      -0.63669465      -0.61796166       0.00000000
Si       2.71322982      -0.05049900       2.29635702       0.00000000
Si      -2.43051687      -2.50408251       0.78886465       0.00000000
Si       2.72653875       2.04758784       1.20409080       0.00000000
Si       0.28452114      -2.95054254      -2.12661780       0.00000000
Si      -0.65089953      -3.71723139      -0.11480245       0.00000000
Si      -0.60631380       2.96722350       2.36087778       0.00000000
