10
Lattice="16.28999089631971 0.0 0.0 0.0 16.28999089631971 0.0 0.0 0.0 34.2284985734139" Properties=species:S:1:pos:R:3:initial_magmoms:R:1 pbc="T T T"
Si      -1.33606931      -1.36130643      -1.36603960       0.00000000
Si       1.35447929      -1.35386190       1.35695536       0.00000000
Si      -1.35849793       1.36031274       1.35705804       0.00000000
Si       1.34393966       1.36172997      -1.37138268       0.00000000
Si      -2.62783017       0.02427210      -2.73220585       0.00000000
Si      -0.00224313      -2.71184517       2.71435568       0.00000000
Si       2.71280465       0.00291591       2.71408185       0.00000000
Si       2.71495493      -2.71192825      -0.00592153       0.00000000
Si       2.71391237       2.71595025      -0.00219063       0.00000000
Si      -2.71695276       0.00283446       2.71387648       0.00000000
