10
Lattice="16.28999089631971 0.0 0.0 0.0 16.28999089631971 0.0 0.0 0.0 34.2284985734139" Properties=species:S:1:pos:R:3:initial_magmoms:R:1 pbc="T T T"
Si      -1.01283075       2.00551077       0.64414647       0.00000000
Si      -0.63369729      -0.25236468      -2.25500897       0.00000000
Si       2.22306372      -0.54988524       0.60806962       0.00000000
Si      -1.15191477      -1.73879460       1.14196604       0.00000000
Si       2.79889893      -1.30686525      -1.51687099       0.00000000
Si      -2.23699167      -0.34956711       2.67423986       0.00000000
Si      -3.16099305       1.18816002       1.14152107       0.00000000
Si      -0.00922014       2.46690873       2.67841574       0.00000000
Si       1.14592005      -1.46551356      -3.15867607       0.00000000
Si      -2.82499551      -1.19176011      -2.06230242       0.00000000
