10
Lattice="16.28999089631971 0.0 0.0 0.0 16.28999089631971 0.0 0.0 0.0 34.2284985734139" Properties=species:S:1:pos:R:3:initial_magmoms:R:1 pbc="T T T"
Si       1.64582757       1.04057262      -1.28685535       0.00000000
Si       1.40986692      -1.12153392       1.50975961       0.00000000
Si      -1.31268078       1.71163917       1.17728987       0.00000000
Si      -1.63497843      -1.22665329      -1.68229742       0.00000000
Si      -1.41099093       0.69282999      -3.06625907       0.00000000
Si      -0.15638400      -2.30990571       2.76514537       0.00000000
Si      -2.98194966      -2.10626442       0.03799365       0.00000000
Si       3.52023642      -0.54423261      -0.97985978       0.00000000
Si       0.85387293       1.01538828      -3.49976325       0.00000000
Si       2.57869071       0.51973245       2.84504499       0.00000000
