10
Lattice="16.28999089631971 0.0 0.0 0.0 16.28999089631971 0.0 0.0 0.0 34.2284985734139" Properties=species:S:1:pos:R:3:initial_magmoms:R:1 pbc="T T T"
Si      -0.73318032       1.84265964       1.28541775       0.00000000
Si       2.17859202       0.83395026      -0.41532883       0.00000000
Si       0.00527796      -1.59747885       1.76752643       0.00000000
Si      -0.98158653      -0.83338011      -2.06623870       0.00000000
Si      -1.96444368       3.09475791      -0.18883873       0.00000000
Si       2.09434014       1.92329514      -2.54122784       0.00000000
Si      -0.07032393      -2.99437893      -2.38891094       0.00000000
Si       2.20248945      -1.80608859       2.58637525       0.00000000
Si       2.88218970       1.89024273       1.71101514       0.00000000
Si      -2.16103140       1.17579591       3.03925277       0.00000000
