10
Lattice="16.28999089631971 0.0 0.0 0.0 16.28999089631971 0.0 0.0 0.0 34.2284985734139" Properties=species:S:1:pos:R:3:initial_magmoms:R:1 pbc="T T T"
Si       1.41683904      -1.27465992       1.38137398       0.00000000
Si      -1.27747809       1.46622157       1.38781579       0.00000000
Si       1.71794340       1.01400363      -1.34201944       0.00000000
Si      -1.89498312      -0.92962143      -1.16499122       0.00000000
Si       3.41433513      -0.74127645      -1.36608209       0.00000000
Si      -3.44338020       0.91994517      -1.26893570       0.00000000
Si       0.68238810       0.93486681      -3.60431909       0.00000000
Si       0.06810849      -2.60340264       2.75213712       0.00000000
Si      -2.59371009       2.76723836      -0.05397495       0.00000000
Si      -2.66536980      -2.69684208       0.10743305       0.00000000
