10
Lattice="16.28999089631971 0.0 0.0 0.0 16.28999089631971 0.0 0.0 0.0 34.2284985734139" Properties=species:S:1:pos:R:3:initial_magmoms:R:1 pbc="T T T"
Si      -0.46208214      -0.60828882      -2.28876846       0.00000000
Si       2.01227016       0.80763702       1.11888041       0.00000000
Si      -0.80236395      -1.94623539       1.27381922       0.00000000
Si      -1.68083478       1.84059407       0.17965057       0.00000000
Si      -2.03634774      -0.55537890       2.70189801       0.00000000
Si       0.71408487       2.15328062       2.69771186       0.00000000
Si      -3.43686420       0.75334082       1.26487188       0.00000000
Si      -0.57767598       3.53885915       1.33154561       0.00000000
Si      -2.74561434      -2.76635544      -0.05374894       0.00000000
Si      -1.88869518       1.24758920      -3.25538180       0.00000000
