10
Lattice="16.28999089631971 0.0 0.0 0.0 16.28999089631971 0.0 0.0 0.0 34.2284985734139" Properties=species:S:1:pos:R:3:initial_magmoms:R:1 pbc="T T T"
Si       1.34361549       1.36401546      -1.38957513       0.00000000
Si      -1.36994013      -1.35099823      -1.38793216       0.00000000
Si      -1.49977143       1.20173448       1.46207113       0.00000000
Si       1.40970402      -1.48464032       1.53747656       0.00000000
Si       2.68066611       2.72318790       0.00694839       0.00000000
Si       2.70659979      -2.71170086      -0.02252236       0.00000000
Si      -2.73556341       2.70262992      -0.02361768       0.00000000
Si       2.70027927       0.00731421      -2.75214397       0.00000000
Si      -2.73908205      -2.71740236      -0.01885991       0.00000000
Si      -0.01638774      -2.70888269      -2.75245202       0.00000000
