10
Lattice="16.28999089631971 0.0 0.0 0.0 16.28999089631971 0.0 0.0 0.0 34.2284985734139" Properties=species:S:1:pos:R:3:initial_magmoms:R:1 pbc="T T T"
Si      -2.14707087       0.15685641      -0.94874605       0.00000000
Si      -0.38286387      -1.87315941       1.40720282       0.00000000
Si       0.21582621       2.25342828       0.72886206       0.00000000
Si       2.05241850      -0.49550922      -1.15514402       0.00000000
Si       1.46371419       2.78721900      -1.17691335       0.00000000
Si      -3.16819323       0.05253525       1.20354314       0.00000000
Si       1.33311237      -1.62878986       2.98010589       0.00000000
Si      -2.17595304      -1.46071290      -2.64706242       0.00000000
Si       3.35791376       1.45617939      -0.88549175       0.00000000
Si      -2.25145719       1.57938066       2.72897126       0.00000000
