10
Lattice="16.28999089631971 0.0 0.0 0.0 16.28999089631971 0.0 0.0 0.0 34.2284985734139" Properties=species:S:1:pos:R:3:initial_magmoms:R:1 pbc="T T T"
Si      -0.02888217      -1.61756931      -1.69831636       0.00000000
Si       2.14707087      -0.15685641       0.94874605       0.00000000
Si      -1.02112236      -0.10432116       2.15228919       0.00000000
Si      -0.91745280       1.97478783      -1.19406184       0.00000000
Si       1.76420700      -2.03001582       2.35594887       0.00000000
Si       2.36289708       2.09657187       1.67760811       0.00000000
Si      -1.40766777      -3.37192316      -0.98013360       0.00000000
Si      -3.23214777       1.44155097      -1.55031225       0.00000000
Si      -0.79648326       3.80233035       0.36994182       0.00000000
Si      -3.22053300       0.71193816       2.08934295       0.00000000
