10
Lattice="16.28999089631971 0.0 0.0 0.0 16.28999089631971 0.0 0.0 0.0 34.2284985734139" Properties=species:S:1:pos:R:3:initial_magmoms:R:1 pbc="T T T"
Si      -0.61579458       1.90514482      -1.24376165       0.00000000
Si      -1.27348704      -1.95026553      -0.43572903       0.00000000
Si      -0.12774618       0.89490418       2.19928495       0.00000000
Si       2.16953478      -0.02054983      -1.04010197       0.00000000
Si       0.30094146       3.43199023       0.28166647       0.00000000
Si      -0.17086581      -2.58230124      -2.46814995       0.00000000
Si       2.14635411      -2.16016218      -2.16988265       0.00000000
Si      -2.09764701       2.11336360       2.34691254       0.00000000
Si       1.67832612       2.46744304       2.45664917       0.00000000
Si       3.88551102       0.22381971       0.53280111       0.00000000
