10
Lattice="16.28999089631971 0.0 0.0 0.0 16.28999089631971 0.0 0.0 0.0 34.2284985734139" Properties=species:S:1:pos:R:3:initial_magmoms:R:1 pbc="T T T"
Si      -1.96990083       1.21845942       0.14762760       0.00000000
Si      -0.24687495      -1.53786722       1.77303722       0.00000000
Si       0.12774618      -0.89490418      -2.19928495       0.00000000
Si       1.80607230       1.57253886       0.25736422       0.00000000
Si       0.42868764       2.53708605      -1.91761848       0.00000000
Si       2.04951006      -1.91125471       1.83653112       0.00000000
Si       2.65900041       0.32540904       2.20435077       0.00000000
Si      -0.48804840       1.01024064      -3.44304660       0.00000000
Si      -1.32600600       3.32565237      -0.60201117       0.00000000
Si      -1.87111827      -3.17300597       1.22640779       0.00000000
