10
Lattice="16.28999089631971 0.0 0.0 0.0 16.28999089631971 0.0 0.0 0.0 34.2284985734139" Properties=species:S:1:pos:R:3:initial_magmoms:R:1 pbc="T T T"
Si      -2.29638501       0.37338749      -0.06349390       0.00000000
Si       0.60949035       2.23666375       0.36781965       0.00000000
Si       1.08489771      -1.49686482       1.44680521       0.00000000
Si       1.26315918      -0.46862373      -1.93517771       0.00000000
Si      -2.04951006       1.91125471      -1.83653112       0.00000000
Si       2.97052127       1.65507817       0.35457321       0.00000000
Si       2.73377870      -2.35808454       0.08324376       0.00000000
Si       3.60829106      -0.38738550      -0.84804575       0.00000000
Si      -2.86761015       1.00753112       2.20233129       0.00000000
Si       0.43212483      -2.63592678      -2.64627516       0.00000000
