10
Lattice="16.28999089631971 0.0 0.0 0.0 16.28999089631971 0.0 0.0 0.0 34.2284985734139" Properties=species:S:1:pos:R:3:initial_magmoms:R:1 pbc="T T T"
Si       1.16760204       1.45850886      -1.40230814       0.00000000
Si      -1.57102389      -0.75955709      -1.62605996       0.00000000
Si      -1.11664692       1.52873505       1.65080718       0.00000000
Si       1.42661304      -1.85587802       0.96661334       0.00000000
Si       0.20786040       0.59300487       3.43503237       0.00000000
Si      -1.93280850      -2.94313778      -0.76329594       0.00000000
Si      -3.47020983       0.65234934      -1.53569668       0.00000000
Si       3.34207010       1.81006335      -0.62285634       0.00000000
Si       0.13484862       3.59261289      -1.46429599       0.00000000
Si       1.88869518      -1.24758920       3.25538180       0.00000000
