10
Lattice="16.28999089631971 0.0 0.0 0.0 16.28999089631971 0.0 0.0 0.0 34.2284985734139" Properties=species:S:1:pos:R:3:initial_magmoms:R:1 pbc="T T T"
Si       1.35729289       1.35720135      -1.35784530       0.00000000
Si      -1.35754344      -1.35786924      -1.35805067       0.00000000
Si      -1.35912357       1.35925389       1.35654461       0.00000000
Si       1.36415718      -1.35967743       1.36058358       0.00000000
Si      -2.71754667       0.01174509       2.69128566       0.00000000
Si       2.71433495       2.71226871      -0.00071880       0.00000000
Si      -2.71803537       2.71148679      -0.00085571       0.00000000
Si      -0.00019548       2.71428867      -2.71527985       0.00000000
Si      -2.71482624      -0.00050499      -2.71510871       0.00000000
Si       2.71294867      -2.71769328      -0.00088994       0.00000000
