10
Lattice="16.28999089631971 0.0 0.0 0.0 16.28999089631971 0.0 0.0 0.0 34.2284985734139" Properties=species:S:1:pos:R:3:initial_magmoms:R:1 pbc="T T T"
Si      -1.16160732       1.31681844      -1.49527280       0.00000000
Si      -1.88287965      -0.94354938       1.31831136       0.00000000
Si       0.13457169      -0.29957310       2.48803672       0.00000000
Si       1.53671715      -1.41001353      -1.42825336       0.00000000
Si       0.95415417       1.91876652       2.51209937       0.00000000
Si       2.55748113       2.36801214      -0.10487618       0.00000000
Si      -2.50665633       2.62594800      -0.17747486       0.00000000
Si      -2.51421489      -0.05470182      -2.82672791       0.00000000
Si      -3.57128928       0.96441687       1.13433308       0.00000000
Si       0.19681578       2.66432724      -2.83001384       0.00000000
