10
Lattice="16.28999089631971 0.0 0.0 0.0 16.28999089631971 0.0 0.0 0.0 34.2284985734139" Properties=species:S:1:pos:R:3:initial_magmoms:R:1 pbc="T T T"
Si       1.17139339       1.95778107       0.47594754       0.00000000
Si       1.14479508      -1.67005080      -1.20101023       0.00000000
Si      -1.18921887      -1.19185785       1.64803467       0.00000000
Si      -1.76591745       1.14109821      -1.13084177       0.00000000
Si      -2.17002348      -0.73347354      -2.48071182       0.00000000
Si      -0.18024885      -1.85526810      -3.12328378       0.00000000
Si       3.28504859      -0.76509243      -1.48791366       0.00000000
Si       0.90993726      -3.57101235       0.17124527       0.00000000
Si      -3.33497025      -0.33985827       1.71142589       0.00000000
Si       1.65744301       3.02042664      -1.55842441       0.00000000
