10
Lattice="16.28999089631971 0.0 0.0 0.0 16.28999089631971 0.0 0.0 0.0 34.2284985734139" Properties=species:S:1:pos:R:3:initial_magmoms:R:1 pbc="T T T"
Si       1.36109466       1.14308559      -1.50526752       0.00000000
Si      -1.55525517      -1.26858375      -1.32375369       0.00000000
Si      -1.39277871       1.54499247       1.21946389       0.00000000
Si       1.59705531      -1.50719967       1.01799034       0.00000000
Si      -2.49680088      -0.20461869       2.50115108       0.00000000
Si       0.31395717       2.62356966       2.45357001       0.00000000
Si      -3.42966402       0.31622148      -1.63074927       0.00000000
Si       0.35548038      -2.87665110       2.49878246       0.00000000
Si       2.93540003      -0.21401802       2.44830225       0.00000000
Si       0.18801918       2.53612494      -2.93478734       0.00000000
