10
Lattice="16.28999089631971 0.0 0.0 0.0 16.28999089631971 0.0 0.0 0.0 34.2284985734139" Properties=species:S:1:pos:R:3:initial_magmoms:R:1 pbc="T T T"
Si       0.73456497      -0.30672441      -2.22868724       0.00000000
Si       1.55525517       1.26858375       1.32375369       0.00000000
Si      -1.87440885       1.58480523      -0.30699558       0.00000000
Si      -0.51693057      -2.37060225       0.88641592       0.00000000
Si      -2.11036950      -0.57730131       2.48961939       0.00000000
Si      -3.52023642       0.54423261       0.97985978       0.00000000
Si       1.76731839      -2.44082844      -2.16669940       0.00000000
Si      -1.25563320       0.01493793      -3.55459733       0.00000000
Si       2.91634983       2.41166934      -0.18151383       0.00000000
Si       0.16247646       2.81357622       2.54321758       0.00000000
