10
Lattice="16.28999089631971 0.0 0.0 0.0 16.28999089631971 0.0 0.0 0.0 34.2284985734139" Properties=species:S:1:pos:R:3:initial_magmoms:R:1 pbc="T T T"
Si       1.04912096       2.28561732      -0.27471808       0.00000000
Si       0.78392628       0.04269609       2.40712051       0.00000000
Si       1.08300416      -1.59571953      -1.64211314       0.00000000
Si      -1.98694638       1.75251078      -0.88566290       0.00000000
Si      -2.80652886      -0.46582884      -0.90972554       0.00000000
Si      -0.01969555       3.29307237       1.65741328       0.00000000
Si       1.26404145      -3.52875609      -0.01488941       0.00000000
Si       1.71234062       2.12535630       2.63176227       0.00000000
Si       2.67812585      -1.28834352       2.69854211       0.00000000
Si      -3.74431158      -0.61287867       1.44122597       0.00000000
