10
Lattice="16.28999089631971 0.0 0.0 0.0 16.28999089631971 0.0 0.0 0.0 34.2284985734139" Properties=species:S:1:pos:R:3:initial_magmoms:R:1 pbc="T T T"
Si       0.86195277       1.82255778       1.20919084       0.00000000
Si      -1.30526883       1.40137983      -1.40901693       0.00000000
Si      -0.95231340      -1.40170563       1.67750542       0.00000000
Si       1.41942915      -1.30153842      -1.40641556       0.00000000
Si      -2.63823066      -2.69058672      -0.12236695       0.00000000
Si      -2.78964621       2.57753412       0.00780410       0.00000000
Si      -0.93271653       3.48799851       1.22082854       0.00000000
Si       2.42590680      -2.94852258      -0.04976826       0.00000000
Si      -2.64670146       0.06229296      -2.77678850       0.00000000
Si       0.06524145      -2.65220748      -2.77490593       0.00000000
