10
Lattice="16.28999089631971 0.0 0.0 0.0 16.28999089631971 0.0 0.0 0.0 34.2284985734139" Properties=species:S:1:pos:R:3:initial_magmoms:R:1 pbc="T T T"
Si       1.33103539      -1.30777749      -1.44170517       0.00000000
Si      -2.27486592       0.57023145      -0.42741150       0.00000000
Si       1.07621581       2.05154631      -0.68847241       0.00000000
Si       0.24470838      -1.59615936       1.84604665       0.00000000
Si       2.66366654      -1.50444666       1.83608615       0.00000000
Si      -2.76346818       1.78882119       1.67962759       0.00000000
Si      -3.16201932      -1.50732999      -1.29849305       0.00000000
Si       0.15964200      -3.26555856      -1.91765270       0.00000000
Si       3.49548281      -1.41358104      -0.44271165       0.00000000
Si      -1.02009609      -0.77208084       3.69507117       0.00000000
