10
Lattice="16.28999089631971 0.0 0.0 0.0 16.28999089631971 0.0 0.0 0.0 34.2284985734139" Properties=species:S:1:pos:R:3:initial_magmoms:R:1 pbc="T T T"
Si      -1.85336217       1.40396994       0.23484186       0.00000000
Si       0.20745315      -1.61876988       1.74644166       0.00000000
Si       2.04737607       1.22184774       0.24090031       0.00000000
Si      -0.70359768      -1.05629247      -2.12634398       0.00000000
Si       2.87847558       1.07875638      -1.90981437       0.00000000
Si      -3.61537002      -0.04758309      -0.42559739       0.00000000
Si      -1.57999968       2.92385952      -1.58436963       0.00000000
Si       0.90694575      -2.67631668      -2.58593028       0.00000000
Si      -2.88218970      -1.89024273      -1.71101514       0.00000000
Si       3.55853488      -0.13745502       1.48538075       0.00000000
