10
Lattice="16.28999089631971 0.0 0.0 0.0 16.28999089631971 0.0 0.0 0.0 34.2284985734139" Properties=species:S:1:pos:R:3:initial_magmoms:R:1 pbc="T T T"
Si       1.64888099      -0.86121972      -1.36356146       0.00000000
Si      -1.18954467      -1.82102652       0.77024433       0.00000000
Si      -1.08489771       1.49686482      -1.44680521       0.00000000
Si       0.92288944       0.95803119       1.98022243       0.00000000
Si      -1.60533063      -0.96469380       2.92047982       0.00000000
Si       0.17826147       1.02824109      -3.38198292       0.00000000
Si       2.52339335       1.10947932      -2.29485097       0.00000000
Si       3.03594191      -2.03668983       0.01605317       0.00000000
Si      -0.95487093       1.40807502       3.34819937       0.00000000
Si       1.98662156       2.97367338       1.29411180       0.00000000
