10
Lattice="16.28999089631971 0.0 0.0 0.0 16.28999089631971 0.0 0.0 0.0 34.2284985734139" Properties=species:S:1:pos:R:3:initial_magmoms:R:1 pbc="T T T"
Si       0.41578596      -0.85633272      -2.15023548       0.00000000
Si      -2.26831734      -0.50101524       0.43203235       0.00000000
Si       1.92226270      -1.19013111       0.81768506       0.00000000
Si       0.65045970       2.37276882       0.42771956       0.00000000
Si      -1.63307250       0.21470220       2.66273908       0.00000000
Si      -2.70896184       1.28550906      -1.30218973       0.00000000
Si       1.77767883      -2.51841771      -1.08928835       0.00000000
Si       2.52822007       1.92272499      -0.94025738       0.00000000
Si       1.60533063       0.96469380      -2.92047982       0.00000000
Si       3.80414573       0.30346641       0.38099763       0.00000000
