10
Lattice="16.28999089631971 0.0 0.0 0.0 16.28999089631971 0.0 0.0 0.0 34.2284985734139" Properties=species:S:1:pos:R:3:initial_magmoms:R:1 pbc="T T T"
Si       1.87776037      -0.45004383      -1.36797694       0.00000000
Si       0.46208214       0.60828882       2.28876846       0.00000000
Si      -0.65045970      -2.37276882      -0.42771956       0.00000000
Si      -1.42661304       1.85587802      -0.96661334       0.00000000
Si      -1.21875264       2.44888289       2.46841903       0.00000000
Si       0.95487093      -1.40807502      -3.34819937       0.00000000
Si       3.15368603      -2.06930241      -0.04672193       0.00000000
Si       1.27180300      -3.56289993       0.38996550       0.00000000
Si      -0.34028181      -1.33794657       3.56258768       0.00000000
Si      -2.28353220      -2.15806662       2.23501952       0.00000000
