10
Lattice="16.28999089631971 0.0 0.0 0.0 16.28999089631971 0.0 0.0 0.0 34.2284985734139" Properties=species:S:1:pos:R:3:initial_magmoms:R:1 pbc="T T T"
Si       1.34789976       1.34846991       1.36313703       0.00000000
Si      -1.20106007       1.39698153      -1.45772753       0.00000000
Si       1.43277066      -1.29130830      -1.36246272       0.00000000
Si      -1.36734025      -1.36819710       1.35546984       0.00000000
Si      -2.48121135       0.00034209      -2.86759132       0.00000000
Si       2.69752626       2.69123832       0.00145813       0.00000000
Si      -0.00957852       2.70396081       2.71581382       0.00000000
Si      -2.71786089       2.70275535      -0.02892652       0.00000000
Si       2.70526401      -0.00684180       2.71649839       0.00000000
Si       2.71593396      -2.72070693      -0.00339547       0.00000000
