10
Lattice="16.28999089631971 0.0 0.0 0.0 16.28999089631971 0.0 0.0 0.0 34.2284985734139" Properties=species:S:1:pos:R:3:initial_magmoms:R:1 pbc="T T T"
Si       2.21659659      -0.01980864       0.77133965       0.00000000
Si      -0.81231714      -2.23091550      -0.08447598       0.00000000
Si      -1.09566540       0.71021142       2.03752097       0.00000000
Si       0.43316739       1.00624959      -2.91832342       0.00000000
Si       2.75224437      -1.65309291      -1.11420671       0.00000000
Si       2.42963721       2.28351591       1.18242414       0.00000000
Si      -3.37598847       0.48527910       1.36349300       0.00000000
Si       1.10042208      -3.57718626      -0.38572117       0.00000000
Si      -0.25508511      -0.58645629       3.85241967       0.00000000
Si       2.12066478      -0.75621438      -3.23880503       0.00000000
