10
Lattice="16.28999089631971 0.0 0.0 0.0 16.28999089631971 0.0 0.0 0.0 34.2284985734139" Properties=species:S:1:pos:R:3:initial_magmoms:R:1 pbc="T T T"
Si      -0.74259594      -0.38405304      -2.11532239       0.00000000
Si       1.30425885       1.86885396       0.08187461       0.00000000
Si       0.54639918      -1.91032830       1.20118137       0.00000000
Si      -1.08120640       1.87519077       1.13067063       0.00000000
Si      -1.59385433      -2.81528667       1.48808481       0.00000000
Si      -1.56725601       0.81254520       3.16504257       0.00000000
Si       0.46367856       3.16552167      -1.73302408       0.00000000
Si       1.64445921      -1.21461498       3.16100361       0.00000000
Si      -1.67101028      -2.46671325      -2.33996416       0.00000000
Si       1.71670536      -3.41686008      -0.19671129       0.00000000
