10
Lattice="16.28999089631971 0.0 0.0 0.0 16.28999089631971 0.0 0.0 0.0 34.2284985734139" Properties=species:S:1:pos:R:3:initial_magmoms:R:1 pbc="T T T"
Si      -0.48604962      -1.06264557       2.03437195       0.00000000
Si      -1.54220755       1.21670010      -1.34322972       0.00000000
Si       1.03344412       1.78069248       1.22058894       0.00000000
Si       1.08120640      -1.87519077      -1.13067063       0.00000000
Si       2.38546525      -0.00633681      -1.04879601       0.00000000
Si       1.54488496       1.29033090      -2.86369471       0.00000000
Si      -3.39245833      -0.24218343      -1.28370633       0.00000000
Si       1.67839780      -1.16844912       3.03336547       0.00000000
Si      -0.74086920       2.29667823       2.78760471       0.00000000
Si      -0.73543811       1.06539858      -3.53772268       0.00000000
