10
Lattice="16.28999089631971 0.0 0.0 0.0 16.28999089631971 0.0 0.0 0.0 34.2284985734139" Properties=species:S:1:pos:R:3:initial_magmoms:R:1 pbc="T T T"
Si      -0.13075983       2.01036519       1.25830877       0.00000000
Si      -2.41895816      -0.09171270       0.00996050       0.00000000
Si       0.96374898      -2.02212657       0.92146593       0.00000000
Si       0.83181627       0.09086562      -2.27879779       0.00000000
Si       2.84363127      -0.04658940       1.71662862       0.00000000
Si       1.19158092       1.24538679       3.03254398       0.00000000
Si      -1.33263114       0.19666917      -3.27779131       0.00000000
Si      -2.66366654       1.50444666      -1.83608615       0.00000000
Si      -0.84799224      -3.61100430       0.36802502       0.00000000
Si      -2.88703502      -2.42817111       0.00427856       0.00000000
