10
Lattice="16.28999089631971 0.0 0.0 0.0 16.28999089631971 0.0 0.0 0.0 34.2284985734139" Properties=species:S:1:pos:R:3:initial_magmoms:R:1 pbc="T T T"
Si       1.35743572       1.35687555       1.35743456       0.00000000
Si       1.35766215      -1.35775521      -1.35740033       0.00000000
Si      -1.35783265       1.35775521      -1.35726341       0.00000000
Si      -1.36017841      -1.35912357       1.35702381       0.00000000
Si      -0.00067336      -2.71448415      -2.71473220       0.00000000
Si      -2.71475707       2.71456163       0.00017114       0.00000000
Si       2.71475599       2.71465026       0.00000000       0.00000000
Si      -0.00037721       2.71493747      -2.71452682       0.00000000
Si      -2.71457788       0.00014661      -2.71565637       0.00000000
Si       2.71548904      -0.00213399      -2.71486911       0.00000000
