10
Lattice="16.28999089631971 0.0 0.0 0.0 16.28999089631971 0.0 0.0 0.0 34.2284985734139" Properties=species:S:1:pos:R:3:initial_magmoms:R:1 pbc="T T T"
Si       0.16752636       2.32590479      -0.28313830       0.00000000
Si      -0.85123395       0.13792743       2.28677304       0.00000000
Si       2.59960707      -0.56702232       0.28662961       0.00000000
Si      -1.88496803       0.28738818      -1.92432727       0.00000000
Si       1.48566429       2.11524903      -2.20072255       0.00000000
Si       1.42309440       2.77805980       1.59029116       0.00000000
Si      -0.39122064       1.36945143      -3.34802823       0.00000000
Si      -3.15700919       0.08459397       1.88338996       0.00000000
Si       3.12069159       0.26992530      -2.03218132       0.00000000
Si       3.29707971       1.48648207       1.12892497       0.00000000
