10
Lattice="16.28999089631971 0.0 0.0 0.0 16.28999089631971 0.0 0.0 0.0 34.2284985734139" Properties=species:S:1:pos:R:3:initial_magmoms:R:1 pbc="T T T"
Si       0.94656303      -1.41771870       1.58166557       0.00000000
Si      -2.30577524      -0.05333346      -0.40338308       0.00000000
Si       0.65041083       2.03276950       1.01569703       0.00000000
Si       0.85123395      -0.13792743      -2.28677304       0.00000000
Si      -2.40499763      -2.22294969      -1.25372215       0.00000000
Si       1.01876031       2.18797736      -2.56991134       0.00000000
Si       2.27432835       2.64013237      -0.69648188       0.00000000
Si      -3.27613796       0.21056454       1.74811886       0.00000000
Si       3.19829715      -0.93662613       1.79015148       0.00000000
Si       0.72830961      -3.64720068       0.90072344       0.00000000
