10
Lattice="16.28999089631971 0.0 0.0 0.0 16.28999089631971 0.0 0.0 0.0 34.2284985734139" Properties=species:S:1:pos:R:3:initial_magmoms:R:1 pbc="T T T"
Si       0.98194491      -0.81668286       2.00267634       0.00000000
Si      -1.88188303      -1.49359752       0.43668743       0.00000000
Si      -1.27592565       1.61925858      -1.32125501       0.00000000
Si       1.89195318      -0.21186774      -1.55866401       0.00000000
Si       2.30321052      -2.39438565       0.73221645       0.00000000
Si       0.83712681      -1.37546244      -3.28542427       0.00000000
Si      -3.15368603       2.06930241       0.04672193       0.00000000
Si      -2.02646690      -2.82188412      -1.47028598       0.00000000
Si      -3.80414573      -0.30346641      -0.38099763       0.00000000
Si       1.76619438       3.49943965      -0.63261146       0.00000000
