10
Lattice="10.86 0.0 0.0 0.0 10.86 0.0 0.0 0.0 10.86" Properties=species:S:1:pos:R:3:initial_magmoms:R:1 pbc="T T T"
Si      -1.26854574      -1.22977554       1.33709406       0.00000000
Si       1.44645426      -1.22977554      -1.37790594       0.00000000
Si       1.44645426       1.48522446       1.33709406       0.00000000
Si      -2.62604574      -2.58727554      -0.02040594       0.00000000
Si      -2.55109002       0.13245942       2.71918110       0.00000000
Si       0.08895426      -2.58727554       2.69459406       0.00000000
Si       0.08895426      -2.58727554      -2.73540594       0.00000000
Si      -2.65723566       0.21678732      -2.68297386       0.00000000
Si       2.80395426      -2.58727554      -0.02040594       0.00000000
Si      -2.59862424       2.84832822      -0.05362668       0.00000000
