10
Lattice="10.86 0.0 0.0 0.0 10.86 0.0 0.0 0.0 10.86" Properties=species:S:1:pos:R:3:initial_magmoms:R:1 pbc="T T T"
Si       1.39577064      -1.29948588      -1.27423638       0.00000000
Si      -1.31922936       1.41551412      -1.27423638       0.00000000
Si      -1.39264296      -1.23594402       1.55538006       0.00000000
Si       1.39577064       1.41551412       1.44076362       0.00000000
Si       0.03827064      -2.65698588      -2.63173638       0.00000000
Si      -2.67672936       0.05801412      -2.63173638       0.00000000
Si       2.88177702      -2.44708380      -0.14097366       0.00000000
Si       2.75327064       0.05801412      -2.63173638       0.00000000
Si      -2.63653650      -2.75547522       0.13273092       0.00000000
Si       0.03827064       2.77301412      -2.63173638       0.00000000
