10
Lattice="10.86 0.0 0.0 0.0 10.86 0.0 0.0 0.0 10.86" Properties=species:S:1:pos:R:3:initial_magmoms:R:1 pbc="T T T"
Si      -1.32631008       1.26843714      -1.40993208       0.00000000
Si      -1.32631008      -1.44656286       1.30506792       0.00000000
Si       1.38868992      -1.44656286      -1.40993208       0.00000000
Si      -2.64361722       2.52744780      -0.00296478       0.00000000
Si       0.05861142       2.63154090       2.62934718       0.00000000
Si       2.65723566      -0.21678732       2.68297386       0.00000000
Si       0.03118992       2.62593714      -2.76743208       0.00000000
Si      -2.68381008      -0.08906286      -2.76743208       0.00000000
Si       0.03118992      -2.80406286       2.66256792       0.00000000
Si      -2.68381008      -2.80406286      -0.05243208       0.00000000
