10
Lattice="16.28999089631971 0.0 0.0 0.0 16.28999089631971 0.0 0.0 0.0 34.40246978574605" Properties=species:S:1:pos:R:3:initial_magmoms:R:1 pbc="T T T"
Si       1.35298224      -1.35788879      -1.35790064       0.00000000
Si       1.33548678       1.35817875       1.37723484       0.00000000
Si      -1.36037464       1.35868374      -1.35800385       0.00000000
Si      -1.35153406      -1.35657907       1.39529615       0.00000000
Si      -2.63659971       0.21007584       2.70255633       0.00000000
Si       2.71368594      -2.71219445       0.00278660       0.00000000
Si       2.71231758       0.00039096      -2.71521645       0.00000000
Si      -0.00302994      -2.71388250      -2.71518204       0.00000000
Si       2.71292031       2.71666701      -0.00048163       0.00000000
Si      -2.71398589      -2.71701426       0.00533239       0.00000000
