10
Lattice="16.28999089631971 0.0 0.0 0.0 16.28999089631971 0.0 0.0 0.0 34.40246978574605" Properties=species:S:1:pos:R:3:initial_magmoms:R:1 pbc="T T T"
Si      -1.53209961       1.32983415       1.16235690       0.00000000
Si      -1.39874967      -1.82687463      -0.46838989       0.00000000
Si       1.64168828      -0.76084074       1.52905303       0.00000000
Si       1.19993606       0.44114949      -2.07195871       0.00000000
Si       2.28126626      -2.37454443      -0.07602950       0.00000000
Si       0.20199763      -3.56524569      -0.41310509       0.00000000
Si      -2.78493093      -0.27368829       2.45269105       0.00000000
Si       3.13276085      -0.99440676      -1.76495089       0.00000000
Si       3.43248056       0.79708599       1.38401213       0.00000000
Si       1.37378294       2.83506273      -2.23420084       0.00000000
