10
Lattice="16.28999089631971 0.0 0.0 0.0 16.28999089631971 0.0 0.0 0.0 34.40246978574605" Properties=species:S:1:pos:R:3:initial_magmoms:R:1 pbc="T T T"
Si       1.35992178       1.34821904      -1.40289910       0.00000000
Si      -1.35456237      -1.36395911      -1.40558249       0.00000000
Si       1.25705043      -1.54652114       1.43778322       0.00000000
Si      -1.45450152       1.45615658       1.53995862       0.00000000
Si       2.69649999      -2.71848890      -0.05569763       0.00000000
Si       2.68915320       2.74463042      -0.03994129       0.00000000
Si      -2.73276153       2.70641408      -0.03113425       0.00000000
Si      -2.72608263      -2.72099756      -0.02972375       0.00000000
Si       0.00120546       2.70644666      -2.76547848       0.00000000
Si      -2.71526607      -0.00965345      -2.76626974       0.00000000
