10
Lattice="16.28999089631971 0.0 0.0 0.0 16.28999089631971 0.0 0.0 0.0 34.40246978574605" Properties=species:S:1:pos:R:3:initial_magmoms:R:1 pbc="T T T"
Si       0.25270677       0.20569383       2.36974665       0.00000000
Si      -2.06226513      -1.22305320      -0.02322168       0.00000000
Si       2.20455828      -0.51445449      -0.89725132       0.00000000
Si      -0.14338458       1.87323597      -1.67901348       0.00000000
Si       0.10208943       2.54850534       2.70073300       0.00000000
Si       1.89270252       2.98056501      -1.27327052       0.00000000
Si      -1.49193594      -3.48313499       0.47654328       0.00000000
Si      -1.96577946       3.13046559      -0.96591868       0.00000000
Si      -3.28308660      -0.44722566       1.92382159       0.00000000
Si       2.45133549      -0.44825193       2.96872839       0.00000000
