10
Lattice="16.28999089631971 0.0 0.0 0.0 16.28999089631971 0.0 0.0 0.0 34.40246978574605" Properties=species:S:1:pos:R:3:initial_magmoms:R:1 pbc="T T T"
Si       1.95747156       0.38160954      -1.27880932       0.00000000
Si       0.53271558       0.26731890       2.35684572       0.00000000
Si      -1.46536695       1.70510688      -0.94775417       0.00000000
Si       1.24623387      -0.99636156      -3.04482669       0.00000000
Si      -0.08716779      -1.94115224       2.90078347       0.00000000
Si      -2.08373535      -2.28346052       1.86729830       0.00000000
Si      -3.60360864       0.62455860      -0.85149601       0.00000000
Si      -0.95239485      -0.34241580      -3.64380843       0.00000000
Si       3.83595291      -0.41806656      -0.05817461       0.00000000
Si       1.33160976      -3.28553336       1.60167668       0.00000000
