10
Lattice="16.28999089631971 0.0 0.0 0.0 16.28999089631971 0.0 0.0 0.0 34.40246978574605" Properties=species:S:1:pos:R:3:initial_magmoms:R:1 pbc="T T T"
Si      -1.64136411      -0.00465894      -1.67326826       0.00000000
Si       0.27419328       2.22350355       0.82442125       0.00000000
Si      -0.84690081      -1.12754493       1.92705542       0.00000000
Si       1.00872567      -2.02803332      -0.89549679       0.00000000
Si      -0.56135340      -3.04932836       0.52563563       0.00000000
Si      -2.87852445       0.08754246       1.52447750       0.00000000
Si      -2.15348913      -2.27649492      -1.03448284       0.00000000
Si      -2.96511720       1.48724442      -0.42435470       0.00000000
Si       3.00529323      -1.68572504       0.13798838       0.00000000
Si       2.61759123       2.45767230       0.45934203       0.00000000
