10
Lattice="16.28999089631971 0.0 0.0 0.0 16.28999089631971 0.0 0.0 0.0 34.40246978574605" Properties=species:S:1:pos:R:3:initial_magmoms:R:1 pbc="T T T"
Si      -1.99656756      -0.34230829      -1.03348517       0.00000000
Si       0.17371656      -1.01239418       2.10718685       0.00000000
Si       1.41877755      -1.34438112      -1.29910679       0.00000000
Si       0.61988337       2.20847114      -0.54393775       0.00000000
Si       1.91570400       0.58039967       2.35481597       0.00000000
Si      -3.00529323       1.68572504      -0.13798838       0.00000000
Si       0.08716779       1.94115224      -2.90078347       0.00000000
Si       2.72644101       2.09738963       0.64112479       0.00000000
Si      -1.77111396      -1.95602568      -2.75852918       0.00000000
Si      -3.56664663      -1.36360332       0.38764725       0.00000000
