10
Lattice="16.28999089631971 0.0 0.0 0.0 16.28999089631971 0.0 0.0 0.0 34.40246978574605" Properties=species:S:1:pos:R:3:initial_magmoms:R:1 pbc="T T T"
Si       1.82239488      -1.25722962      -0.71309479       0.00000000
Si      -0.40630518       2.08549467      -0.97967968       0.00000000
Si       0.14814126       0.19719045       2.40143134       0.00000000
Si      -1.92189420      -1.48471947      -1.06338094       0.00000000
Si      -3.06456765      -1.04045859       1.02251078       0.00000000
Si      -1.96371063       2.79984375       0.60510538       0.00000000
Si      -0.45396972       2.50398477       2.45874589       0.00000000
Si      -1.66008132      -1.20032865       2.89875372       0.00000000
Si       1.77925896       3.16571715      -0.78630329       0.00000000
Si       1.96577946      -3.13046559       0.96591868       0.00000000
