10
Lattice="16.28999089631971 0.0 0.0 0.0 16.28999089631971 0.0 0.0 0.0 34.40246978574605" Properties=species:S:1:pos:R:3:initial_magmoms:R:1 pbc="T T T"
Si       2.34339795       0.23416875      -0.36507921       0.00000000
Si      -0.27419328      -2.22350355      -0.82442125       0.00000000
Si      -1.82806380       1.13233419      -1.07449294       0.00000000
Si      -0.64524690       0.25904358       2.41347221       0.00000000
Si       1.13321385      -1.20366810       3.05817486       0.00000000
Si      -3.23931048      -0.73625913      -1.24877595       0.00000000
Si      -1.12109409      -3.35104848       1.10263418       0.00000000
Si      -0.82569123       2.33453619      -2.84512024       0.00000000
Si      -1.91555739      -2.22816249      -2.49768951       0.00000000
Si      -3.15271773      -2.13596109       0.70005625       0.00000000
