10
Lattice="16.28999089631971 0.0 0.0 0.0 16.28999089631971 0.0 0.0 0.0 34.40246978574605" Properties=species:S:1:pos:R:3:initial_magmoms:R:1 pbc="T T T"
Si      -1.18213272      -1.34807895      -1.48736895       0.00000000
Si      -1.42092783       1.26120438       1.42863216       0.00000000
Si       1.28335878      -1.44546057       1.41123482       0.00000000
Si       1.07290827       1.57312530      -1.59439509       0.00000000
Si      -2.56581021      -2.67196725       0.10011468       0.00000000
Si      -2.74995074       2.56608225       0.00487827       0.00000000
Si       2.67714747       2.68016112      -0.06536129       0.00000000
Si       0.63770463      -1.69520256      -3.35036693       0.00000000
Si      -0.07719831       2.62467738       2.79365756       0.00000000
Si       2.63583603      -0.09326025       2.78942605       0.00000000
