10
Lattice="16.28999089631971 0.0 0.0 0.0 16.28999089631971 0.0 0.0 0.0 34.40246978574605" Properties=species:S:1:pos:R:3:initial_magmoms:R:1 pbc="T T T"
Si       1.35762489      -1.35708732      -1.35669656       0.00000000
Si      -1.35751086      -1.35723393       1.35728140       0.00000000
Si       1.35702216       1.35830907       1.35683417       0.00000000
Si      -1.35778779       1.35798327      -1.35676536       0.00000000
Si       0.00441459       2.70971118       2.71669575       0.00000000
Si       0.00198738      -2.71254564      -2.71425318       0.00000000
Si       2.71454931      -2.71407690       0.00110088       0.00000000
Si       0.00050499      -2.71360449       2.71538846       0.00000000
Si      -2.71541268      -2.71443528       0.00020641       0.00000000
Si       2.71511946       2.71476108       0.00048163       0.00000000
