10
Lattice="16.28999089631971 0.0 0.0 0.0 16.28999089631971 0.0 0.0 0.0 34.40246978574605" Properties=species:S:1:pos:R:3:initial_magmoms:R:1 pbc="T T T"
Si      -1.36502055      -1.35198855       1.34417405       0.00000000
Si       1.36008468      -1.35449721      -1.35972398       0.00000000
Si      -1.35742941       1.35923760      -1.36020561       0.00000000
Si       1.37196009       1.36669842       1.35177700       0.00000000
Si       2.47274055      -0.03560994       2.87845626       0.00000000
Si      -2.71003698       2.71063971      -0.00034402       0.00000000
Si       2.71199178      -2.70974376       0.00058484       0.00000000
Si      -2.71394658      -2.71267596      -0.00165132       0.00000000
Si       0.00009774      -2.71314837      -2.71593890       0.00000000
Si       2.72111418       2.70852201      -0.00147931       0.00000000
