10
Lattice="16.28999089631971 0.0 0.0 0.0 16.28999089631971 0.0 0.0 0.0 34.40246978574605" Properties=species:S:1:pos:R:3:initial_magmoms:R:1 pbc="T T T"
Si      -0.82102903      -0.11333605       2.19532603       0.00000000
Si      -1.85003479       0.47242303      -1.40792186       0.00000000
Si       0.68285562      -2.29878194      -0.16065962       0.00000000
Si       1.88556261       1.46913483      -0.54101354       0.00000000
Si       0.01262149      -2.38627553      -2.41051360       0.00000000
Si       1.06075104      -1.15698326       3.21233241       0.00000000
Si       3.08204682      -0.84982487       1.97023055       0.00000000
Si      -1.40616487      -0.75791994      -3.40632805       0.00000000
Si      -1.78298515       2.86624668      -1.73825456       0.00000000
Si       3.04296711      -2.38518410       0.16317101       0.00000000
