10
Lattice="16.28999089631971 0.0 0.0 0.0 16.28999089631971 0.0 0.0 0.0 34.40246978574605" Properties=species:S:1:pos:R:3:initial_magmoms:R:1 pbc="T T T"
Si      -1.57270176       1.60795332      -0.59502545       0.00000000
Si       2.36522655      -0.01288539       0.29971448       0.00000000
Si      -0.39035727       0.00356751       2.35498798       0.00000000
Si      -0.81114426      -1.54836450      -1.67471317       0.00000000
Si      -1.81351683      -2.75056650       0.09591414       0.00000000
Si       1.30828248      -1.92523365      -2.59711270       0.00000000
Si       2.80627830      -2.04527466      -0.80849289       0.00000000
Si      -3.43116107      -1.10462490       0.90444144       0.00000000
Si      -3.65197039       0.41725206      -0.93210104       0.00000000
Si      -0.72120717       2.98809099      -2.28394684       0.00000000
