10
Lattice="16.28999089631971 0.0 0.0 0.0 16.28999089631971 0.0 0.0 0.0 34.40246978574605" Properties=species:S:1:pos:R:3:initial_magmoms:R:1 pbc="T T T"
Si       1.34055297       1.35697329       1.35611171       0.00000000
Si      -1.35358497       1.35104373      -1.35452920       0.00000000
Si      -1.33995024      -1.36228383       1.36426510       0.00000000
Si       1.35855342      -1.36308204      -1.35284348       0.00000000
Si       0.24760800      -2.53775394       2.70940242       0.00000000
Si      -0.09889659       2.52894105       2.84959257       0.00000000
Si       2.64021804       0.04150692       2.75240554       0.00000000
Si       0.00275301       2.70927896      -2.71222343       0.00000000
Si      -2.71050939       2.71150308       0.00622685       0.00000000
Si      -2.71164969      -0.00482184      -2.71225783       0.00000000
