10
Lattice="16.28999089631971 0.0 0.0 0.0 16.28999089631971 0.0 0.0 0.0 34.40246978574605" Properties=species:S:1:pos:R:3:initial_magmoms:R:1 pbc="T T T"
Si      -1.35174420      -1.34882829      -1.37754447       0.00000000
Si       1.24525647      -1.49827275       1.33058507       0.00000000
Si       1.37152026       1.35703845      -1.37585874       0.00000000
Si      -1.28477601       1.36272423       1.57738852       0.00000000
Si       2.20866336      -0.16325838       3.00251163       0.00000000
Si      -2.69369974       2.71265382       0.01665080       0.00000000
Si      -2.71842959      -2.70811476      -0.00030962       0.00000000
Si      -2.70159061      -0.00319284      -2.73716523       0.00000000
Si       2.72608263       2.72099756       0.02972375       0.00000000
Si       0.01081656       2.71134411      -2.73654599       0.00000000
