10
Lattice="16.28999089631971 0.0 0.0 0.0 16.28999089631971 0.0 0.0 0.0 34.40246978574605" Properties=species:S:1:pos:R:3:initial_magmoms:R:1 pbc="T T T"
Si       0.05175333       2.30456259       0.55921246       0.00000000
Si       2.10290868      -1.01936304       0.50561338       0.00000000
Si      -1.71048258      -1.20058929       1.24767507       0.00000000
Si       0.19613160      -0.04399929      -2.46724330       0.00000000
Si       1.35979146       1.97900694       2.51399629       0.00000000
Si       3.12592068       0.94056831       1.35948316       0.00000000
Si      -2.24239995       2.67296094       1.01676556       0.00000000
Si       0.65264256      -0.02327841       3.64150346       0.00000000
Si       1.77090219      -1.93331349       2.61882067       0.00000000
Si      -1.15518906      -2.03123268      -2.89152920       0.00000000
