10
Lattice="16.28999089631971 0.0 0.0 0.0 16.28999089631971 0.0 0.0 0.0 34.40246978574605" Properties=species:S:1:pos:R:3:initial_magmoms:R:1 pbc="T T T"
Si      -0.02875185      -0.93727773      -2.15755210       0.00000000
Si       2.33437329       0.24003315       0.23627629       0.00000000
Si      -0.45509373      -1.78263099       1.52334221       0.00000000
Si      -1.19441538       2.11786290      -0.23699875       0.00000000
Si      -2.37143304      -0.64014813      -2.50467321       0.00000000
Si      -1.41765354      -0.48340575       3.28141261       0.00000000
Si       1.68173073       0.26331156      -3.40522717       0.00000000
Si      -0.56066922       2.93627250      -2.38846160       0.00000000
Si      -2.19328560      -3.09558870       0.56629937       0.00000000
Si       3.04152219       2.24231850      -0.89123088       0.00000000
