10
Lattice="16.28999089631971 0.0 0.0 0.0 16.28999089631971 0.0 0.0 0.0 34.40246978574605" Properties=species:S:1:pos:R:3:initial_magmoms:R:1 pbc="T T T"
Si      -1.35744570       1.35761469      -1.35717819       0.00000000
Si       1.35793440      -1.35694832      -1.35738461       0.00000000
Si      -1.35633798      -1.35823523       1.35769423       0.00000000
Si       1.35814617       1.35727586       1.35783184       0.00000000
Si      -0.00275301      -2.70927896       2.71222343       0.00000000
Si      -2.71440270      -2.71410080      -0.00003440       0.00000000
Si       0.00158013      -2.71410080      -2.71507884       0.00000000
Si       2.71554300       0.00089519       2.71380594       0.00000000
Si      -2.71520091       0.00193763      -2.71418437       0.00000000
Si      -2.71463076       2.71480952       0.00044723       0.00000000
