10
Lattice="16.28999089631971 0.0 0.0 0.0 16.28999089631971 0.0 0.0 0.0 34.40246978574605" Properties=species:S:1:pos:R:3:initial_magmoms:R:1 pbc="T T T"
Si       1.35749457      -1.35739031      -1.35662775       0.00000000
Si       1.35786924       1.35788553       1.35717819       0.00000000
Si      -1.35755973      -1.35743593       1.35800385       0.00000000
Si      -1.35812988       1.35858600      -1.35683417       0.00000000
Si       2.71308321      -2.71411543       0.00010321       0.00000000
Si       0.00133578      -2.71321275      -2.71418437       0.00000000
Si      -0.00016290      -2.71381659       2.71397796       0.00000000
Si       2.71347417       0.00004887       2.71490682       0.00000000
Si      -2.71497285       0.00141723      -2.71390915       0.00000000
Si       2.71523349       0.00065160      -2.71408116       0.00000000
