10
Lattice="16.28999089631971 0.0 0.0 0.0 16.28999089631971 0.0 0.0 0.0 34.40246978574605" Properties=species:S:1:pos:R:3:initial_magmoms:R:1 pbc="T T T"
Si      -1.74198744      -1.59279385      -0.24762912       0.00000000
Si       1.83915729      -0.90012513       1.24984243       0.00000000
Si       0.81073701       1.51698996      -1.71369119       0.00000000
Si      -1.12181085       1.87333371       1.08030696       0.00000000
Si      -1.91570400      -0.58039967      -2.35481597       0.00000000
Si       2.02704615       2.78374923      -0.09773747       0.00000000
Si      -1.29582063       1.62807147      -2.89875372       0.00000000
Si       2.98703214      -2.32142993      -0.31529881       0.00000000
Si      -1.45551150       1.15572663       3.54362739       0.00000000
Si      -0.49692645      -1.92478079      -3.65392276       0.00000000
