10
Lattice="16.28999089631971 0.0 0.0 0.0 16.28999089631971 0.0 0.0 0.0 34.40246978574605" Properties=species:S:1:pos:R:3:initial_magmoms:R:1 pbc="T T T"
Si      -1.83915729       0.90012513      -1.24984243       0.00000000
Si       1.14787485      -1.42130480      -1.56514124       0.00000000
Si       2.22980778       1.10940276      -0.01527471       0.00000000
Si       0.06226038      -1.56740981       1.98708777       0.00000000
Si       3.25628955      -0.87512486      -0.65798200       0.00000000
Si       1.03985586       0.11695243       3.41435212       0.00000000
Si       2.96479629       0.99069753       2.24703542       0.00000000
Si      -2.08687932      -3.29172260       0.34443772       0.00000000
Si       0.18788886       3.68387436      -1.34757990       0.00000000
Si      -3.58114473      -0.69266872      -1.49747154       0.00000000
