10
Lattice="16.28999089631971 0.0 0.0 0.0 16.28999089631971 0.0 0.0 0.0 34.40246978574605" Properties=species:S:1:pos:R:3:initial_magmoms:R:1 pbc="T T T"
Si      -1.27208610       1.40027211       1.42967112       0.00000000
Si      -1.74866634      -0.79146594      -1.43186741       0.00000000
Si       1.58298075       1.39435884      -1.18612179       0.00000000
Si       1.43246115      -1.33172379       1.42801636       0.00000000
Si      -2.49093648      -2.45905695       0.10090250       0.00000000
Si      -2.62399320       0.02537982       2.80780730       0.00000000
Si      -2.61423549       2.84617251      -0.05248444       0.00000000
Si       0.09627390      -2.69614161       2.80546793       0.00000000
Si       2.90444184      -2.62909197       0.05972960       0.00000000
Si       0.09073530       2.73750192       2.80753208       0.00000000
