10
Lattice="16.28999089631971 0.0 0.0 0.0 16.28999089631971 0.0 0.0 0.0 34.40246978574605" Properties=species:S:1:pos:R:3:initial_magmoms:R:1 pbc="T T T"
Si      -1.35190710       1.35524655      -1.36030882       0.00000000
Si      -1.38145716      -1.32320412       1.36667328       0.00000000
Si       1.36166481      -1.36142046      -1.36041203       0.00000000
Si       1.34871426       1.36013355       1.39230313       0.00000000
Si       0.09466119      -2.59643052       2.61169936       0.00000000
Si      -2.71199178       2.70974376      -0.00058484       0.00000000
Si       2.71184517       2.71575477       0.00299302       0.00000000
Si      -2.71189404      -0.00340461      -2.71652374       0.00000000
Si       0.00320913       2.71151937      -2.71710858       0.00000000
Si      -2.71068858      -2.71961550       0.00371547       0.00000000
