10
Lattice="16.28999089631971 0.0 0.0 0.0 16.28999089631971 0.0 0.0 0.0 34.40246978574605" Properties=species:S:1:pos:R:3:initial_magmoms:R:1 pbc="T T T"
Si       1.35190710      -1.35524655       1.36030882       0.00000000
Si       1.35511623       1.35627282      -1.35679976       0.00000000
Si      -1.36008468       1.35449721       1.35972398       0.00000000
Si      -1.35998694      -1.35865116      -1.35621492       0.00000000
Si      -0.02955006      -2.67845067       2.72698210       0.00000000
Si       2.71269225      -0.00156384      -2.71466601       0.00000000
Si      -0.00265527       2.71344159      -2.71414997       0.00000000
Si      -2.72510523       0.00250866       2.70389803       0.00000000
Si       2.71336014       2.71588509       0.00075685       0.00000000
Si      -0.00242721      -2.71596654      -2.71411557       0.00000000
