10
Lattice="16.28999089631971 0.0 0.0 0.0 16.28999089631971 0.0 0.0 0.0 34.40246978574605" Properties=species:S:1:pos:R:3:initial_magmoms:R:1 pbc="T T T"
Si      -1.37575566      -1.91013282       0.14779309       0.00000000
Si       1.18969128      -1.36785501      -1.63865936       0.00000000
Si      -1.62421074       1.80713115      -0.31839504       0.00000000
Si       1.49270157       0.42748218       1.92880995       0.00000000
Si       0.37012509       2.62413981      -1.31372785       0.00000000
Si       0.48992175      -3.33075277      -0.46175021       0.00000000
Si       0.32234652       0.02795364      -3.43071941       0.00000000
Si       0.59209263       2.50725906       2.63309770       0.00000000
Si      -2.60532486      -1.63421280       2.12824118       0.00000000
Si      -2.85210207      -1.70041536      -1.73773852       0.00000000
