10
Lattice="16.28999089631971 0.0 0.0 0.0 16.28999089631971 0.0 0.0 0.0 34.40246978574605" Properties=species:S:1:pos:R:3:initial_magmoms:R:1 pbc="T T T"
Si       0.78920163      -2.16191106       0.24934924       0.00000000
Si       0.94915314       1.13567364      -1.86877761       0.00000000
Si      -2.24145513      -0.89283861       0.23916610       0.00000000
Si       1.35145098       1.95085782       0.70470058       0.00000000
Si      -0.60874101       3.44145798       0.28450858       0.00000000
Si       0.83662182      -0.41998878      -3.59161985       0.00000000
Si      -0.42710751      -3.42867033      -1.36660447       0.00000000
Si       3.08115576       1.85292234      -1.02956329       0.00000000
Si      -3.30680484       0.85926492       1.60377523       0.00000000
Si      -0.27971559      -1.10708469       3.62079316       0.00000000
