10
Lattice="16.28999089631971 0.0 0.0 0.0 16.28999089631971 0.0 0.0 0.0 34.40246978574605" Properties=species:S:1:pos:R:3:initial_magmoms:R:1 pbc="T T T"
Si      -1.33836245      -1.34886087      -1.36883720       0.00000000
Si       1.36073139      -1.35272160       1.35786624       0.00000000
Si      -1.35492834       1.35964485       1.35803825       0.00000000
Si       1.38283692       1.35034326      -1.35225864       0.00000000
Si      -2.61706573       0.06421518      -2.74745846       0.00000000
Si       0.00110446      -2.71252772       2.71476921       0.00000000
Si      -2.71177579       2.71661814      -0.00268339       0.00000000
Si      -2.71361656       0.00182448       2.71521645       0.00000000
Si       2.71755807       2.71239903      -0.00048163       0.00000000
Si       2.71662954      -2.71352630       0.00072245       0.00000000
