10
Lattice="16.28999089631971 0.0 0.0 0.0 16.28999089631971 0.0 0.0 0.0 34.40246978574605" Properties=species:S:1:pos:R:3:initial_magmoms:R:1 pbc="T T T"
Si      -1.35511623      -1.35627282       1.35679976       0.00000000
Si      -1.35777150       1.35716877      -1.35735020       0.00000000
Si       1.35757602      -1.35783666      -1.35786624       0.00000000
Si       1.35824391       1.35961227       1.35755662       0.00000000
Si       0.00591327       2.70674640       2.71504443       0.00000000
Si      -2.71309950      -0.00114030      -2.71470041       0.00000000
Si      -2.71453302       2.71391400      -0.00003440       0.00000000
Si      -0.00320913      -2.71151937       2.71710858       0.00000000
Si       2.70863604       0.00423540       2.72010160       0.00000000
Si       0.00047241       2.71492398      -2.71425318       0.00000000
