10
Lattice="16.28999089631971 0.0 0.0 0.0 16.28999089631971 0.0 0.0 0.0 34.40246978574605" Properties=species:S:1:pos:R:3:initial_magmoms:R:1 pbc="T T T"
Si       1.57410270       1.47764961      -0.84674846       0.00000000
Si      -1.93243383       0.37971990      -1.30096452       0.00000000
Si      -0.47597751       0.18792144       2.30926707       0.00000000
Si       1.08191664      -2.11786290       0.15598089       0.00000000
Si       1.48421448      -1.30267872       2.72945908       0.00000000
Si      -2.78381439      -0.51303726       2.12803476       0.00000000
Si      -3.40120539      -1.00035261      -0.16723050       0.00000000
Si       3.21391926      -1.40061420       0.99519520       0.00000000
Si       3.58560819       0.79630407       0.13379128       0.00000000
Si      -1.47590658      -0.75316815      -3.28891235       0.00000000
