10
Lattice="16.28999089631971 0.0 0.0 0.0 16.28999089631971 0.0 0.0 0.0 34.40246978574605" Properties=species:S:1:pos:R:3:initial_magmoms:R:1 pbc="T T T"
Si      -0.11253132      -1.55566242      -1.72284225       0.00000000
Si      -1.08191664       2.11786290      -0.15598089       0.00000000
Si      -0.94915314      -1.13567364       1.86877761       0.00000000
Si       2.13200262       0.71724870       0.83921432       0.00000000
Si       0.40229784       0.81518418       2.57347819       0.00000000
Si      -1.55789415       2.30578434       2.15328619       0.00000000
Si      -2.11717872      -0.88435152      -2.77810420       0.00000000
Si       0.49218606       3.59551251      -1.00272935       0.00000000
Si       2.50369155       2.91416697      -0.02218961       0.00000000
Si      -0.15995151      -3.29758470       2.11812685       0.00000000
