10
Lattice="16.28999089631971 0.0 0.0 0.0 16.28999089631971 0.0 0.0 0.0 34.40246978574605" Properties=species:S:1:pos:R:3:initial_magmoms:R:1 pbc="T T T"
Si      -1.15317399       1.50066738      -1.33970173       0.00000000
Si       1.33472115       1.36205577       1.35177700       0.00000000
Si      -1.38283692      -1.35034326       1.35225864       0.00000000
Si       1.41420006      -1.38989538      -1.35454640       0.00000000
Si      -2.48306678       0.08364915      -2.61924348       0.00000000
Si       2.69306280       0.01127268       2.70995286       0.00000000
Si      -0.02210553      -2.70306486       2.71012488       0.00000000
Si      -2.72119938      -2.69920413      -0.01657856       0.00000000
Si      -2.71192792       2.71114470       0.00853870       0.00000000
Si       2.69599500       2.72717406      -0.02858159       0.00000000
