10
Lattice="16.28999089631971 0.0 0.0 0.0 16.28999089631971 0.0 0.0 0.0 34.40246978574605" Properties=species:S:1:pos:R:3:initial_magmoms:R:1 pbc="T T T"
Si       0.47597751      -0.18792144      -2.30926707       0.00000000
Si       0.55961037       1.90421955       1.34947203       0.00000000
Si      -2.30783688      -0.70095870      -0.18123231       0.00000000
Si       1.96019199      -1.49060016       0.42019200       0.00000000
Si       0.60874101      -3.44145798      -0.28450858       0.00000000
Si       1.55789415      -2.30578434      -2.15328619       0.00000000
Si       1.00980081       0.53929674       3.36858852       0.00000000
Si       2.88622962      -0.49344039       2.37611111       0.00000000
Si       2.14985646       3.22722819      -0.21467153       0.00000000
Si      -1.45645632       0.19179846      -3.61023160       0.00000000
