10
Lattice="16.28999089631971 0.0 0.0 0.0 16.28999089631971 0.0 0.0 0.0 34.40246978574605" Properties=species:S:1:pos:R:3:initial_magmoms:R:1 pbc="T T T"
Si       1.46438955      -1.18530927      -1.31095157       0.00000000
Si      -1.33569855      -1.36489023       1.34210990       0.00000000
Si       1.37767788       1.35260757       1.34496531       0.00000000
Si      -1.28026368       1.37051028      -1.44136108       0.00000000
Si       2.39487435       0.43719102      -2.78537830       0.00000000
Si      -2.66178600       2.70839073      -0.01590083       0.00000000
Si       0.48070161       2.37153078      -2.93086642       0.00000000
Si      -2.69237862      -0.00882918       2.70204029       0.00000000
Si       0.21818826      -2.52451017      -2.86178623       0.00000000
Si       0.02308293       2.70677065       2.70276274       0.00000000
