10
Lattice="16.28999089631971 0.0 0.0 0.0 16.28999089631971 0.0 0.0 0.0 34.40246978574605" Properties=species:S:1:pos:R:3:initial_magmoms:R:1 pbc="T T T"
Si      -1.35635427      -1.35715248      -1.35769423       0.00000000
Si       1.35760860      -1.35695700       1.35707498       0.00000000
Si      -1.35793440       1.35694832       1.35738461       0.00000000
Si       1.35910728       1.35844735      -1.35697178       0.00000000
Si      -0.00190593       2.71114863      -2.71483802       0.00000000
Si       2.71471221      -0.00215028       2.71308349       0.00000000
Si       2.71370223       0.00428427      -2.71476921       0.00000000
Si      -2.71427238      -0.00128691       2.71507884       0.00000000
Si       0.00021177       2.71422418       2.71521645       0.00000000
Si       2.71461447      -2.71490769       0.00037843       0.00000000
