10
Lattice="16.28999089631971 0.0 0.0 0.0 16.28999089631971 0.0 0.0 0.0 34.40246978574605" Properties=species:S:1:pos:R:3:initial_magmoms:R:1 pbc="T T T"
Si      -1.35521397      -1.35817875      -1.35910473       0.00000000
Si      -1.35855342       1.36308204       1.35284348       0.00000000
Si       1.35974259       1.35845568      -1.35968957       0.00000000
Si       1.36523232      -1.36534635       1.35597410       0.00000000
Si      -2.69850366       0.00079821       2.71710858       0.00000000
Si       0.01607823      -2.70716994       2.70923041       0.00000000
Si      -2.71213839       2.71412577      -0.00168572       0.00000000
Si      -2.71331127      -2.71463076      -0.00275220       0.00000000
Si      -0.01800045       2.72005533       2.70895519       0.00000000
Si      -2.71345788       0.00009774      -2.71645493       0.00000000
