10
Lattice="16.28999089631971 0.0 0.0 0.0 16.28999089631971 0.0 0.0 0.0 34.40246978574605" Properties=species:S:1:pos:R:3:initial_magmoms:R:1 pbc="T T T"
Si      -0.90635931      -1.26327321       1.73594960       0.00000000
Si       0.76383810       1.80746251       1.29542572       0.00000000
Si       1.36290285      -1.02592791      -1.77238183       0.00000000
Si      -2.32420833       1.18430322      -0.80295409       0.00000000
Si      -1.57872906       1.21405039      -3.17737948       0.00000000
Si      -1.92937131      -3.22320456       0.88207982       0.00000000
Si       0.67442229      -0.00182448      -3.82775854       0.00000000
Si      -1.10183931       3.22808246       1.90496902       0.00000000
Si       3.68606862      -0.62035578      -1.13700226       0.00000000
Si       0.50182974      -3.28983066      -2.09851743       0.00000000
