10
Lattice="16.28999089631971 0.0 0.0 0.0 16.28999089631971 0.0 0.0 0.0 34.40246978574605" Properties=species:S:1:pos:R:3:initial_magmoms:R:1 pbc="T T T"
Si       0.67201137      -2.10535218      -0.71619102       0.00000000
Si      -2.29395780       0.45452358      -0.09598294       0.00000000
Si       0.77178762      -0.16785216       2.22515299       0.00000000
Si       0.95107536       2.16235089      -0.28949695       0.00000000
Si       0.97985979       2.18636235       2.18710384       0.00000000
Si       2.98256868      -0.86165955       1.59730756       0.00000000
Si       0.80544276      -1.91764251      -3.00987376       0.00000000
Si      -0.90209133      -3.58300179       0.13055745       0.00000000
Si      -2.50409880       2.58301149      -1.15152011       0.00000000
Si      -0.40521375       3.31074117      -1.84417983       0.00000000
