10
Lattice="16.28999089631971 0.0 0.0 0.0 16.28999089631971 0.0 0.0 0.0 34.40246978574605" Properties=species:S:1:pos:R:3:initial_magmoms:R:1 pbc="T T T"
Si      -0.77178762       0.16785216      -2.22515299       0.00000000
Si       0.20807217       2.35421451      -0.03804915       0.00000000
Si       2.21078106      -0.69380739      -0.62784542       0.00000000
Si      -1.59024609      -1.32300864       1.56414357       0.00000000
Si       0.17928774       2.33020305      -2.51464993       0.00000000
Si      -0.09977625      -1.93750002      -2.94134401       0.00000000
Si      -3.02668200       0.48379671       1.87152980       0.00000000
Si       1.91172924      -2.61884556      -1.96080426       0.00000000
Si       2.31648687       2.90039445       0.86911008       0.00000000
Si       1.03663044       0.27376974       3.65966798       0.00000000
