10
Lattice="16.28999089631971 0.0 0.0 0.0 16.28999089631971 0.0 0.0 0.0 34.40246978574605" Properties=species:S:1:pos:R:3:initial_magmoms:R:1 pbc="T T T"
Si      -1.69108119      -0.86838732      -1.39189030       0.00000000
Si       1.01483442       1.79172081      -1.19080775       0.00000000
Si      -0.87904098       0.45437697       2.23715946       0.00000000
Si       1.89470619      -1.60430436      -0.05463115       0.00000000
Si      -3.09505113      -1.21836168       0.42101766       0.00000000
Si       2.27322063       0.39462525      -2.66027567       0.00000000
Si      -0.41330988      -2.36800399      -2.64021902       0.00000000
Si       0.92062935       2.39910975       2.61703174       0.00000000
Si       3.21667227      -0.91434141       1.79257609       0.00000000
Si       1.01214657      -3.60768782      -1.11336775       0.00000000
