10
Lattice="16.28999089631971 0.0 0.0 0.0 16.28999089631971 0.0 0.0 0.0 34.40246978574605" Properties=species:S:1:pos:R:3:initial_magmoms:R:1 pbc="T T T"
Si       1.92128725       1.14012081      -0.66998847       0.00000000
Si      -1.18811115       0.15773607      -2.00717882       0.00000000
Si      -0.56153259       1.44487413       1.77365472       0.00000000
Si      -0.06704964      -2.39382364       0.33033270       0.00000000
Si      -2.78899461       0.66355686       2.04271659       0.00000000
Si      -3.09200490      -1.13178033      -1.52475272       0.00000000
Si       3.32577359       0.98025075       1.20625447       0.00000000
Si       1.21760975       3.37411512      -0.94562122       0.00000000
Si       1.78298515      -2.86624668       1.73825456       0.00000000
Si      -0.42339339       3.71641689       0.78864266       0.00000000
