10
Lattice="16.28999089631971 0.0 0.0 0.0 16.28999089631971 0.0 0.0 0.0 34.40246978574605" Properties=species:S:1:pos:R:3:initial_magmoms:R:1 pbc="T T T"
Si       1.02648177      -1.98452762      -0.64270730       0.00000000
Si       0.73498851      -0.11870523       2.26231013       0.00000000
Si       0.17394462       1.85867271      -1.60742190       0.00000000
Si      -2.22980778      -1.10940276       0.01527471       0.00000000
Si      -1.08193293      -2.53070756      -1.54986653       0.00000000
Si      -2.04191892       2.57447160      -1.33230519       0.00000000
Si      -1.18995192      -0.99245033       3.42962683       0.00000000
Si       3.29289874       1.88447607      -0.41310509       0.00000000
Si       2.43791253      -1.98867017       2.21417860       0.00000000
Si      -2.16754740      -2.67681257       2.00236247       0.00000000
