10
Lattice="16.28999089631971 0.0 0.0 0.0 16.28999089631971 0.0 0.0 0.0 34.40246978574605" Properties=species:S:1:pos:R:3:initial_magmoms:R:1 pbc="T T T"
Si       1.35726651       1.35637056       1.35831347       0.00000000
Si      -1.35800770      -1.35830907       1.35803825       0.00000000
Si      -1.36189939       1.35721764      -1.35662775       0.00000000
Si       1.35870003      -1.36337526      -1.35735020       0.00000000
Si      -2.68794904      -0.01428633      -2.70058851       0.00000000
Si       2.71327869       2.71456560       0.00048163       0.00000000
Si      -0.00052128       2.71287144       2.71501003       0.00000000
Si       0.01568727       2.70840798      -2.72031145       0.00000000
Si      -2.71434741      -0.00086337       2.71466601       0.00000000
Si      -2.71387232       2.71593396       0.00086006       0.00000000
