10
Lattice="16.28999089631971 0.0 0.0 0.0 16.28999089631971 0.0 0.0 0.0 34.40246978574605" Properties=species:S:1:pos:R:3:initial_magmoms:R:1 pbc="T T T"
Si      -1.35668007      -1.35764118       1.35700618       0.00000000
Si       1.35767376      -1.35788553      -1.35693737       0.00000000
Si      -1.35755973       1.35746199      -1.35755662       0.00000000
Si       1.36065483       1.35707103       1.35903593       0.00000000
Si       2.71278999      -0.00070047       2.71507884       0.00000000
Si       0.00068418      -2.71487511      -2.71425318       0.00000000
Si      -2.71454931      -2.71552671      -0.00017201       0.00000000
Si      -0.00107514      -2.71547784       2.71473481       0.00000000
Si       2.71545797      -2.71495656      -0.00006880       0.00000000
Si      -2.71513575       2.71529865       0.00030962       0.00000000
