10
Lattice="16.28999089631971 0.0 0.0 0.0 16.28999089631971 0.0 0.0 0.0 34.40246978574605" Properties=species:S:1:pos:R:3:initial_magmoms:R:1 pbc="T T T"
Si       0.56153259      -1.44487413      -1.77365472       0.00000000
Si      -2.22746202      -0.78131727       0.26906187       0.00000000
Si       1.20489280      -0.42337710       2.03112295       0.00000000
Si       0.13813920       2.27154276      -0.98501207       0.00000000
Si       2.48281984      -0.30475332      -2.44364320       0.00000000
Si      -3.12807096       1.29845961       0.97334962       0.00000000
Si      -2.31166503       2.46399282      -1.13187629       0.00000000
Si      -1.83150099      -2.39909346       2.04467753       0.00000000
Si       0.29066247       1.16476758       3.47286246       0.00000000
Si       1.77914234       1.92924099      -2.71927594       0.00000000
