10
Lattice="16.28999089631971 0.0 0.0 0.0 16.28999089631971 0.0 0.0 0.0 34.40246978574605" Properties=species:S:1:pos:R:3:initial_magmoms:R:1 pbc="T T T"
Si       1.36140417      -1.35334062       1.35728140       0.00000000
Si      -1.35518139       1.35912357       1.35786624       0.00000000
Si      -1.36282140      -1.33722981      -1.37786097       0.00000000
Si       1.36809936       1.36692648      -1.35906345       0.00000000
Si      -2.71472850      -2.71212210       0.00027522       0.00000000
Si       0.00192222      -2.71363707       2.71425318       0.00000000
Si      -2.71342530       0.00136836       2.71476921       0.00000000
Si      -2.71251306       2.71849149      -0.00319943       0.00000000
Si       2.71441899       2.71669959       0.00196094       0.00000000
Si       0.00177561       2.71679733       2.71480362       0.00000000
