10
Lattice="16.28999089631971 0.0 0.0 0.0 16.28999089631971 0.0 0.0 0.0 34.40246978574605" Properties=species:S:1:pos:R:3:initial_magmoms:R:1 pbc="T T T"
Si       1.73141849       0.86796378      -1.60866039       0.00000000
Si      -1.75893297       1.80483426      -0.09859753       0.00000000
Si      -0.87133060      -1.67265720      -1.69071032       0.00000000
Si      -1.38344847      -1.80551844       1.40465363       0.00000000
Si       1.54414865      -0.00496845       2.41016958       0.00000000
Si      -2.70541455      -2.49548139      -0.44255362       0.00000000
Si       0.40315958       2.20928238      -3.02088256       0.00000000
Si      -2.32690011      -0.49655178      -3.04819814       0.00000000
Si       3.47549105       1.81653048      -0.37195971       0.00000000
Si       2.35291457      -2.35369323       2.15239173       0.00000000
