10
Lattice="16.28999089631971 0.0 0.0 0.0 16.28999089631971 0.0 0.0 0.0 34.40246978574605" Properties=species:S:1:pos:R:3:initial_magmoms:R:1 pbc="T T T"
Si      -1.36712196      -1.34734590      -1.36915026       0.00000000
Si       1.36307149       1.35493704      -1.37682201       0.00000000
Si      -0.93382425       1.72173897       1.35982718       0.00000000
Si       1.37176626      -1.32652728       1.43097153       0.00000000
Si       2.72887378       0.14110398       2.66154856       0.00000000
Si       2.71005557      -2.69068446      -0.00151371       0.00000000
Si       2.69590119       2.72994336       0.00443792       0.00000000
Si      -2.73025287      -2.70296712       0.02015986       0.00000000
Si      -2.71207323       2.72357397       0.00891024       0.00000000
Si       0.00003258      -2.70980892      -2.73052555       0.00000000
