10
Lattice="16.28999089631971 0.0 0.0 0.0 16.28999089631971 0.0 0.0 0.0 34.40246978574605" Properties=species:S:1:pos:R:3:initial_magmoms:R:1 pbc="T T T"
Si      -0.13343139      -0.18770967       2.29368275       0.00000000
Si      -1.06829820      -1.77114654      -1.08618979       0.00000000
Si      -1.21494078       1.79957259      -0.96426736       0.00000000
Si       2.34768222      -0.15946281      -0.36095091       0.00000000
Si      -1.02082914      -0.84343104      -3.19760815       0.00000000
Si       0.76290957      -3.17920527      -1.21729767       0.00000000
Si      -0.50318181       1.43715267      -3.20858254       0.00000000
Si      -0.80544276       1.91764251       3.00987376       0.00000000
Si       2.92868136       1.69516998      -1.67598606       0.00000000
Si       1.87807410      -0.86905521       3.27422249       0.00000000
