10
Lattice="16.28999089631971 0.0 0.0 0.0 16.28999089631971 0.0 0.0 0.0 34.40246978574605" Properties=species:S:1:pos:R:3:initial_magmoms:R:1 pbc="T T T"
Si      -1.68523308      -0.37185183       1.58812210       0.00000000
Si       1.39874967       1.82687463       0.46838989       0.00000000
Si       1.60074729      -1.73837106       0.05528480       0.00000000
Si      -1.21562496       0.33774057      -2.04705130       0.00000000
Si      -0.13334994       3.15670878       1.63074678       0.00000000
Si      -1.38618126       1.55318634       2.92108094       0.00000000
Si       0.84693080      -2.97180099      -1.83344625       0.00000000
Si      -0.67452003      -1.66252482      -3.16915729       0.00000000
Si       3.68001593      -0.54766980       0.39236039       0.00000000
Si      -3.69673857       0.30949371       0.60758236       0.00000000
