10
Lattice="16.28999089631971 0.0 0.0 0.0 16.28999089631971 0.0 0.0 0.0 34.40246978574605" Properties=species:S:1:pos:R:3:initial_magmoms:R:1 pbc="T T T"
Si       1.35523026      -1.35705474      -1.35525165       0.00000000
Si      -1.35741312      -1.35695700       1.35759102       0.00000000
Si       1.35705474       1.35798327       1.35710939       0.00000000
Si      -1.35832536       1.36223496      -1.35755662       0.00000000
Si       0.00891063      -2.70682785      -2.71627604       0.00000000
Si      -2.71441899       0.00099369       2.71428758       0.00000000
Si      -2.71437012      -2.71463076       0.00065365       0.00000000
Si      -2.71292031       2.71639804       0.00024082       0.00000000
Si       2.71656927      -2.71285515       0.00017201       0.00000000
Si       0.00009774      -2.71500543       2.71442519       0.00000000
