10
Lattice="16.28999089631971 0.0 0.0 0.0 16.28999089631971 0.0 0.0 0.0 34.40246978574605" Properties=species:S:1:pos:R:3:initial_magmoms:R:1 pbc="T T T"
Si      -1.68917526       1.17415129      -1.17343450       0.00000000
Si       1.82895879       1.42532191      -0.52219538       0.00000000
Si       0.30358044      -2.08788930      -1.10146449       0.00000000
Si      -0.33609528       0.31079691       2.36056119       0.00000000
Si       0.73520028       3.37089689       0.28560946       0.00000000
Si      -0.89349021      -1.63997946      -3.10867771       0.00000000
Si      -1.11936735       0.73936956      -3.38300316       0.00000000
Si       0.28209393       2.61328157       2.53009665       0.00000000
Si      -3.70286361       0.34731909      -0.35131822       0.00000000
Si       3.71073887       0.38167470       0.49481100       0.00000000
