10
Lattice="16.28999089631971 0.0 0.0 0.0 16.28999089631971 0.0 0.0 0.0 34.40246978574605" Properties=species:S:1:pos:R:3:initial_magmoms:R:1 pbc="T T T"
Si       2.25990423      -0.40926996      -0.37956266       0.00000000
Si      -0.58099914      -1.85463279       1.31503514       0.00000000
Si      -1.19707065       0.44790984      -2.00721322       0.00000000
Si      -0.30358044       2.08788930       1.10146449       0.00000000
Si       3.23331155       0.07565076       1.75851763       0.00000000
Si       3.02926301       1.32776532      -1.77671655       0.00000000
Si      -3.43186317      -0.25801731      -1.53259648       0.00000000
Si      -2.92868136      -1.69516998       1.67598606       0.00000000
Si      -1.99275570       3.26204059      -0.07197001       0.00000000
Si      -0.03989421      -3.85489818       0.19292916       0.00000000
