10
Lattice="16.28999089631971 0.0 0.0 0.0 16.28999089631971 0.0 0.0 0.0 34.40246978574605" Properties=species:S:1:pos:R:3:initial_magmoms:R:1 pbc="T T T"
Si      -0.29905182      -1.92503817      -1.33295884       0.00000000
Si       1.55851317      -0.20758347       1.79412420       0.00000000
Si      -2.21078106       0.69380739       0.62784542       0.00000000
Si       1.25283132       1.60352244      -1.29033416       0.00000000
Si      -2.98256868       0.86165955      -1.59730756       0.00000000
Si      -2.31055731      -1.24369263      -2.31349858       0.00000000
Si       0.12455334      -1.18907226       3.35857739       0.00000000
Si       1.38618126      -1.55318634      -2.92108094       0.00000000
Si      -2.00270889       3.04802190       0.58979627       0.00000000
Si       2.07130349       3.03707502       0.39872485       0.00000000
