10
Lattice="16.28999089631971 0.0 0.0 0.0 16.28999089631971 0.0 0.0 0.0 34.40246978574605" Properties=species:S:1:pos:R:3:initial_magmoms:R:1 pbc="T T T"
Si      -2.14337304      -0.01386279       0.93433720       0.00000000
Si       1.14095160      -1.43435079       1.53080755       0.00000000
Si       0.61818921       2.30248466       0.16953547       0.00000000
Si       0.33609528      -0.31079691      -2.36056119       0.00000000
Si       2.35324267       1.76250048       1.67147933       0.00000000
Si      -3.49966215       1.13452749      -0.62034568       0.00000000
Si       1.95942377      -0.00079821       3.21986656       0.00000000
Si       2.16505407       1.11452500      -2.88275657       0.00000000
Si       1.07129556       3.06009998      -2.07495172       0.00000000
Si       2.67305121      -2.76418494       0.36845066       0.00000000
