10
Lattice="16.28999089631971 0.0 0.0 0.0 16.28999089631971 0.0 0.0 0.0 34.40246978574605" Properties=species:S:1:pos:R:3:initial_magmoms:R:1 pbc="T T T"
Si      -1.74200536      -0.52848018      -1.37296893       0.00000000
Si       0.76414761      -1.98371475       1.02120348       0.00000000
Si      -1.97579618       0.74849292       1.34682824       0.00000000
Si       1.89407088       0.96563862      -1.44934246       0.00000000
Si       1.92147066      -0.72505161       2.61152532       0.00000000
Si      -0.64590339       2.16551115       2.62636999       0.00000000
Si      -0.61339995      -1.42936605      -3.16275842       0.00000000
Si       2.46998754      -2.52503145      -0.65323446       0.00000000
Si       0.73777410       3.48939945       1.03888636       0.00000000
Si       3.67253163      -0.49707306      -0.80463982       0.00000000
