10
Lattice="16.28999089631971 0.0 0.0 0.0 16.28999089631971 0.0 0.0 0.0 34.40246978574605" Properties=species:S:1:pos:R:3:initial_magmoms:R:1 pbc="T T T"
Si      -1.32902291       1.30487787      -1.42375389       0.00000000
Si       1.34372952       1.36347300       1.36502540       0.00000000
Si      -1.37758666      -1.35119034       1.36368370       0.00000000
Si       1.42092783      -1.26120438      -1.42863216       0.00000000
Si       2.70050733       2.70757719      -0.00927835       0.00000000
Si      -2.63193588      -0.18928980      -2.76992814       0.00000000
Si       2.70428661      -2.70666495      -0.01739734       0.00000000
Si       2.69759142       0.00615762       2.72079309       0.00000000
Si      -2.72332405       2.69773803      -0.00862126       0.00000000
Si      -2.70363631      -2.72269431       0.01972295       0.00000000
