10
Lattice="16.28999089631971 0.0 0.0 0.0 16.28999089631971 0.0 0.0 0.0 34.40246978574605" Properties=species:S:1:pos:R:3:initial_magmoms:R:1 pbc="T T T"
Si      -0.70480314       1.14054435       1.93847705       0.00000000
Si       1.98796644       1.01385702      -0.76249677       0.00000000
Si       0.60211098      -2.30679432      -0.05731455       0.00000000
Si      -1.50974091       0.29585898      -1.85364051       0.00000000
Si       0.04766454      -0.41849010      -3.43842557       0.00000000
Si       0.45396972      -2.50398477      -2.45874589       0.00000000
Si      -2.20854933       2.73281040       0.89267578       0.00000000
Si       1.45973061       3.29885532      -0.78537442       0.00000000
Si      -1.47636270      -0.65441817       3.33755747       0.00000000
Si       3.71107377       0.51013764       0.80656635       0.00000000
