10
Lattice="16.28999089631971 0.0 0.0 0.0 16.28999089631971 0.0 0.0 0.0 34.40246978574605" Properties=species:S:1:pos:R:3:initial_magmoms:R:1 pbc="T T T"
Si       0.73974356       1.09305900       1.94539195       0.00000000
Si      -2.12868828      -0.96560604       0.33793565       0.00000000
Si      -0.22080932       1.52187696      -1.83654247       0.00000000
Si       1.61764424      -1.64594160      -0.80852730       0.00000000
Si       3.04080380       1.10819241       1.45054655       0.00000000
Si      -2.02938444      -2.68537392      -1.25510601       0.00000000
Si       1.85845931       2.71257822      -1.49946689       0.00000000
Si       0.20639756      -3.51453492      -0.98281031       0.00000000
Si       2.62001681      -0.44373960      -2.57915460       0.00000000
Si       3.43116107       1.10462490      -0.90444144       0.00000000
