10
Lattice="16.28999089631971 0.0 0.0 0.0 16.28999089631971 0.0 0.0 0.0 34.40246978574605" Properties=species:S:1:pos:R:3:initial_magmoms:R:1 pbc="T T T"
Si       0.61683714       0.81531450      -2.19075050       0.00000000
Si       0.13769937      -2.41790841      -0.35097419       0.00000000
Si       1.68691095       0.76936041       1.62737534       0.00000000
Si      -2.25126890       1.09488348       0.52701173       0.00000000
Si      -0.92871245      -2.95008642       1.68723567       0.00000000
Si       2.43875961      -2.40277500      -0.84581959       0.00000000
Si      -1.82861082      -1.08644526       3.01737351       0.00000000
Si       0.39136725       2.12625225       3.02301551       0.00000000
Si      -1.45092912       3.35883510       1.46874546       0.00000000
Si       3.90924162      -0.63174249       0.07981377       0.00000000
