10
Lattice="16.28999089631971 0.0 0.0 0.0 16.28999089631971 0.0 0.0 0.0 34.40246978574605" Properties=species:S:1:pos:R:3:initial_magmoms:R:1 pbc="T T T"
Si      -1.34984642       1.34563545      -1.35962077       0.00000000
Si       1.35174420       1.34882829       1.37754447       0.00000000
Si       1.36475991      -1.36866951      -1.35710939       0.00000000
Si      -1.36668539      -1.35928647       1.37723484       0.00000000
Si       2.59700067      -0.14944446       2.70812953       0.00000000
Si       0.08073324      -2.59654455       2.76547848       0.00000000
Si      -2.70440737       2.70104692       0.00423151       0.00000000
Si       0.00654858       2.70417869      -2.71628292       0.00000000
Si      -2.70809165      -0.01088172      -2.71669575       0.00000000
Si       2.72326446       2.70586674       0.00168572       0.00000000
