10
Lattice="16.290000149 0.0 0.0 0.0 16.290000149 0.0 0.0 0.0 29.1751946751" Properties=species:S:1:pos:R:3:initial_magmoms:R:1 pbc="T T T"
Si       1.03291633      -1.47023767      -1.48315020       0.00000000
Si      -0.82358983      -1.73457551       1.33774103       0.00000000
Si      -1.62323335       1.25118604      -1.17132572       0.00000000
Si       2.09945522       0.94912057       0.68480017       0.00000000
H       -2.37161225      -1.75896164       0.80275548       0.00000000
Si       0.16360047       0.76030318       3.41851591       0.00000000
Si       2.30747852      -2.77456170      -0.04872258       0.00000000
Si      -0.28119798       2.63158436      -2.49036544       0.00000000
H        2.99520975      -1.87232375       0.93133056       0.00000000
Si       2.43519212      -0.15741027      -2.73841295       0.00000000
