10
Lattice="16.290000149 0.0 0.0 0.0 16.290000149 0.0 0.0 0.0 29.1751946751" Properties=species:S:1:pos:R:3:initial_magmoms:R:1 pbc="T T T"
Si       1.34561917       1.35398897      -1.36531159       0.00000000
Si      -1.35580042      -1.36258032      -1.35130749       0.00000000
Si       1.38989539      -1.34774013       1.33353980       0.00000000
Si      -1.38442195       1.35296270       1.33581546       0.00000000
Si       0.02818170      -2.69660101       2.68610182       0.00000000
Si      -0.02816541       2.71894438       2.67373154       0.00000000
Si      -2.70258922      -0.00248911      -2.70547415       0.00000000
Si       2.70493823      -0.00409694      -2.70442385       0.00000000
Si       2.71963181       2.69995024      -0.02182305       0.00000000
Si      -2.71225570       2.71392706      -0.03804445       0.00000000
