10
Lattice="16.290000149 0.0 0.0 0.0 16.290000149 0.0 0.0 0.0 29.1751946751" Properties=species:S:1:pos:R:3:initial_magmoms:R:1 pbc="T T T"
Si      -1.52075296       1.31498420       1.19898380       0.00000000
Si       1.41516118       1.28136164      -1.38135794       0.00000000
Si      -1.22940631      -1.43980144      -1.42462476       0.00000000
Si       0.98785819      -0.83156541       1.99640022       0.00000000
Si      -0.07811055       2.64245631       2.40934593       0.00000000
Si      -0.75544876      -1.17228868       3.48672752       0.00000000
Si       1.15124689      -3.12226523       1.75054086       0.00000000
Si      -2.67963986      -0.12550956       2.70617436       0.00000000
Si      -2.57144168      -2.82019976      -0.10558503       0.00000000
Si       0.06854832       2.61328092      -2.78979047       0.00000000
