10
Lattice="16.290000149 0.0 0.0 0.0 16.290000149 0.0 0.0 0.0 29.1751946751" Properties=species:S:1:pos:R:3:initial_magmoms:R:1 pbc="T T T"
Si      -1.33807690       1.15419538       1.55673587       0.00000000
Si      -1.30847797      -1.44669862      -1.36956825       0.00000000
Si       1.42711804      -1.36718713       1.33428960       0.00000000
Si       0.83411317       1.99762643      -1.09140931       0.00000000
H        1.91428679       0.28468404      -1.87826694       0.00000000
Si      -0.91204453       3.53988219      -0.63990538       0.00000000
Si      -2.74439262       2.51796161       0.30247967       0.00000000
Si      -2.70664868      -0.02163312      -2.59384694       0.00000000
Si       0.08402382       2.61423551       2.78153680       0.00000000
Si      -2.63510300      -2.82932868       0.00599842       0.00000000
