10
Lattice="16.290000149 0.0 0.0 0.0 16.290000149 0.0 0.0 0.0 29.1751946751" Properties=species:S:1:pos:R:3:initial_magmoms:R:1 pbc="T T T"
H       -1.03182490      -1.10820871       0.21329985       0.00000000
Si       1.48139469      -1.07619886      -1.42666702       0.00000000
Si       1.16989731      -0.16131987       2.01445967       0.00000000
Si      -1.25317342       1.64142929      -1.16149368       0.00000000
H       -1.54403137       0.43137549       2.02647985       0.00000000
Si       0.01241298      -2.22078314       2.60476138       0.00000000
Si      -2.54640395      -0.03626154      -2.33063125       0.00000000
Si      -1.99585082      -0.85328650       2.68758976       0.00000000
Si       0.06928137      -2.51527376      -2.60196056       0.00000000
Si       3.05297409      -2.15073614      -0.07048727       0.00000000
