10
Lattice="16.290000149 0.0 0.0 0.0 16.290000149 0.0 0.0 0.0 29.1751946751" Properties=species:S:1:pos:R:3:initial_magmoms:R:1 pbc="T T T"
Si       0.43852680      -0.24827589       2.28323790       0.00000000
Si      -1.71882308       1.62992854       0.10380534       0.00000000
Si      -0.04950531      -2.29412072      -0.66577794       0.00000000
Si       1.86984767       0.89718805      -1.27641477       0.00000000
H       -0.92268190       0.16234614      -2.54153873       0.00000000
Si       2.15477606      -2.67620267       0.13721094       0.00000000
Si      -0.32435019       3.36838107      -0.81034103       0.00000000
Si       2.07161561      -1.98374735       2.36699521       0.00000000
Si       3.46375902       1.70878844       0.28515835       0.00000000
Si      -3.77581026       0.62130061      -0.61988536       0.00000000
