10
Lattice="16.290000149 0.0 0.0 0.0 16.290000149 0.0 0.0 0.0 29.1751946751" Properties=species:S:1:pos:R:3:initial_magmoms:R:1 pbc="T T T"
Si      -1.28308936       1.35193969       1.42062775       0.00000000
Si       1.34345097      -1.33885882       1.37791527       0.00000000
Si      -1.38075833      -1.35935164      -1.33374402       0.00000000
Si       1.34183826       1.36912564      -1.36405705       0.00000000
Si       2.65464938       0.12908196       2.65733508       0.00000000
Si       0.01375528      -2.69848088      -2.68172554       0.00000000
Si      -2.67121956       2.71467965       0.07349232       0.00000000
Si      -2.68703715       0.01980864      -2.70815827       0.00000000
Si      -0.06357335      -2.63658377       2.76583763       0.00000000
Si       2.71689347       0.02034621      -2.72029515       0.00000000
