10
Lattice="16.290000149 0.0 0.0 0.0 16.290000149 0.0 0.0 0.0 29.1751946751" Properties=species:S:1:pos:R:3:initial_magmoms:R:1 pbc="T T T"
Si      -1.30627882       1.37916028      -1.37441425       0.00000000
Si       1.38075833       1.35935164       1.33374402       0.00000000
Si       1.39451361      -1.33912924      -1.34798152       0.00000000
Si      -1.38388438      -1.33401418       1.38226237       0.00000000
Si       0.07715843      -2.63216755       2.65567210       0.00000000
Si      -2.67854843      -0.00537570      -2.68429296       0.00000000
Si      -2.63251289       2.74940994      -0.00201309       0.00000000
Si       0.02567304      -2.71119359      -2.67977081       0.00000000
Si      -2.61651611       0.09353718       2.79822210       0.00000000
Si       2.72420930       0.02049282       2.71165929       0.00000000
