10
Lattice="16.290000149 0.0 0.0 0.0 16.290000149 0.0 0.0 0.0 29.1751946751" Properties=species:S:1:pos:R:3:initial_magmoms:R:1 pbc="T T T"
Si      -1.49193595       1.79499512      -0.12609519       0.00000000
Si       1.11915559      -1.10330542      -1.76705402       0.00000000
Si      -1.66995308      -1.51656643       0.72284462       0.00000000
Si       1.85948723       0.85543678       1.24379690       0.00000000
H       -0.75971674       0.56303128       2.48820648       0.00000000
H       -1.40535460       0.99326647       2.44610667       0.00000000
Si       2.46184256      -2.51709824      -0.39619914       0.00000000
H        1.36220239       3.20926035      -0.97462655       0.00000000
H        0.77328631       3.35862336       1.32878424       0.00000000
Si       2.55063935       2.71150310      -0.17318396       0.00000000
