10
Lattice="16.290000149 0.0 0.0 0.0 16.290000149 0.0 0.0 0.0 29.1751946751" Properties=species:S:1:pos:R:3:initial_magmoms:R:1 pbc="T T T"
H        1.29621160       0.55198666       0.92009811       0.00000000
Si       1.22893390      -1.85122820      -0.66647815       0.00000000
Si      -1.02467359       1.33537276      -1.61613073       0.00000000
Si      -1.78728995      -0.58660291       1.44084616       0.00000000
H        0.95946472       1.24844932      -2.67974163       0.00000000
Si      -2.09608319       2.44636706       0.24997307       0.00000000
Si      -1.79352902      -0.70481944      -2.62617597       0.00000000
Si       2.47772531       1.08927973       1.97235986       0.00000000
Si      -0.30517686      -2.57302181      -2.27601529       0.00000000
Si      -2.85837375      -2.34634646       0.37723527       0.00000000
