10
Lattice="16.290000149 0.0 0.0 0.0 16.290000149 0.0 0.0 0.0 29.1751946751" Properties=species:S:1:pos:R:3:initial_magmoms:R:1 pbc="T T T"
Si       1.39279501       1.43544223      -1.17616880       0.00000000
Si       1.70158826      -1.59752773       0.01470430       0.00000000
Si      -0.95716783       1.27083178       1.75360425       0.00000000
Si      -1.59391135      -0.81160039      -1.56157312       0.00000000
Si      -2.07260930       1.21803589      -2.62057434       0.00000000
Si      -0.17319528       2.71697654      -2.30209791       0.00000000
Si       0.63050446      -3.35727129      -1.04890660       0.00000000
Si      -2.40891635       2.68758938       0.53661936       0.00000000
Si      -0.29753685      -2.31318002      -2.88192573       0.00000000
Si       2.35460549      -2.02080710       2.14627903       0.00000000
