10
Lattice="16.290000149 0.0 0.0 0.0 16.290000149 0.0 0.0 0.0 29.1751946751" Properties=species:S:1:pos:R:3:initial_magmoms:R:1 pbc="T T T"
Si       1.42488631      -1.36003582      -1.27034633       0.00000000
Si       1.35698959       1.34933329       1.35355398       0.00000000
Si      -1.32473539      -1.38662110       1.38334186       0.00000000
Si      -1.33933123       1.33682257      -1.42161971       0.00000000
Si       0.03497463      -2.70495452      -2.54577205       0.00000000
Si      -2.68754051       2.61579935       0.03737342       0.00000000
Si       2.69720048       2.70327665      -0.03133416       0.00000000
Si       2.70169652      -0.03189582       2.70853755       0.00000000
Si       0.00726534       2.68004711       2.73429924       0.00000000
Si      -2.71125875      -0.06939540      -2.73374492       0.00000000
