10
Lattice="16.290000149 0.0 0.0 0.0 16.290000149 0.0 0.0 0.0 29.1751946751" Properties=species:S:1:pos:R:3:initial_magmoms:R:1 pbc="T T T"
Si       1.38759850       1.35900955      -1.30401450       0.00000000
Si       1.38287440      -1.34524450       1.33593216       0.00000000
Si      -1.31758408       1.37241622       1.38704711       0.00000000
Si      -1.33056721      -1.34574949      -1.41444261       0.00000000
Si       0.01703934       2.71960412      -2.61742342       0.00000000
Si       0.01544292      -2.68944644       2.67889555       0.00000000
Si      -2.67711166      -2.69355152      -0.04624268       0.00000000
Si      -2.66437288       2.73250743       0.03288044       0.00000000
Si       2.71163342       0.00729792      -2.68831914       0.00000000
Si      -2.69238842       0.02477709       2.73710006       0.00000000
