10
Lattice="16.290000149 0.0 0.0 0.0 16.290000149 0.0 0.0 0.0 29.1751946751" Properties=species:S:1:pos:R:3:initial_magmoms:R:1 pbc="T T T"
Si       1.41690421      -1.34291568       1.25450420       0.00000000
Si      -1.49783293       1.23568448       1.28007917       0.00000000
Si      -1.03939975      -1.85390953      -0.95208872       0.00000000
Si       0.86578093       1.72793570      -1.38239308       0.00000000
H       -2.05213277       0.77788660      -2.05478562       0.00000000
Si      -1.87336631      -0.60959461      -2.66548080       0.00000000
Si      -0.07815942       2.66472474       2.51585873       0.00000000
Si       2.64873773      -2.54416571      -0.34142855       0.00000000
Si      -0.83944000       3.39635752      -1.25514605       0.00000000
Si      -0.04333140      -2.77955621       2.46935347       0.00000000
