10
Lattice="16.290000149 0.0 0.0 0.0 16.290000149 0.0 0.0 0.0 29.1751946751" Properties=species:S:1:pos:R:3:initial_magmoms:R:1 pbc="T T T"
Si       0.84924658      -1.87603787      -1.11064131       0.00000000
Si       1.48828699       1.25151184       1.37444342       0.00000000
Si      -1.38886912       1.31474962      -1.43010969       0.00000000
Si      -1.31026987      -1.36772470       1.48533834       0.00000000
H        1.38513871      -1.61746669      -2.49529605       0.00000000
H        2.66348018       0.13488120      -2.07569840       0.00000000
Si       0.00643455       2.54999981       2.71378908       0.00000000
Si      -2.79713964       2.49499271       0.03979497       0.00000000
H       -0.20901699      -0.77146183      -3.67166907       0.00000000
Si       2.54156582      -2.80570818       0.19585308       0.00000000
