10
Lattice="16.290000149 0.0 0.0 0.0 16.290000149 0.0 0.0 0.0 29.1751946751" Properties=species:S:1:pos:R:3:initial_magmoms:R:1 pbc="T T T"
Si       1.33144850       1.36018243       1.37831497       0.00000000
Si      -1.29565774      -1.31458672       1.46881642       0.00000000
Si      -1.38803833       1.36023130      -1.35641607       0.00000000
Si       1.40031285      -1.34934958      -1.36924440       0.00000000
Si      -0.10604790      -2.73447201      -2.53681177       0.00000000
Si       0.07187881       2.53886168      -2.77252750       0.00000000
Si      -2.68556942      -2.65950542       0.19339070       0.00000000
Si       2.67726152       2.68918580      -0.00301380       0.00000000
Si       2.70055622       0.01130526       2.74219697       0.00000000
Si       2.75921652      -2.68874597       0.01154462       0.00000000
