10
Lattice="16.290000149 0.0 0.0 0.0 16.290000149 0.0 0.0 0.0 29.1751946751" Properties=species:S:1:pos:R:3:initial_magmoms:R:1 pbc="T T T"
Si       1.92419111      -1.04677912       0.78055316       0.00000000
Si      -1.25449291      -1.32398442      -1.46730807       0.00000000
Si       1.15888690       1.44049376      -1.50719056       0.00000000
Si      -0.97322977       0.40238092       2.15266256       0.00000000
H       -1.87789493       1.97296500       0.65731714       0.00000000
Si       0.04828356       2.55329625       2.54153873       0.00000000
Si      -2.59965596      -2.62229744      -0.10275504       0.00000000
Si       3.66749805      -0.70605585      -0.70977414       0.00000000
Si       2.60152931       2.76796587      -0.29682843       0.00000000
Si       2.67963986       0.12550956      -2.70617436       0.00000000
