10
Lattice="16.290000149 0.0 0.0 0.0 16.290000149 0.0 0.0 0.0 29.1751946751" Properties=species:S:1:pos:R:3:initial_magmoms:R:1 pbc="T T T"
Si      -0.73829539       1.32693454      -1.78785593       0.00000000
Si       1.99366796      -0.88664027      -0.97777747       0.00000000
Si      -1.51514920      -1.84951449      -0.07133335       0.00000000
Si      -0.62867998       1.07100235       2.04614393       0.00000000
H        2.45545688       1.39535254       1.03046788       0.00000000
H        1.23970159      -0.77542681       2.76785072       0.00000000
Si      -2.49808781       2.29179125      -0.52637886       0.00000000
Si       0.80055577      -2.03278888      -2.66985124       0.00000000
Si      -0.62815870      -0.39701988      -3.59175822       0.00000000
Si       2.56544696      -2.62510094       0.54149161       0.00000000
