10
Lattice="16.290000149 0.0 0.0 0.0 16.290000149 0.0 0.0 0.0 29.1751946751" Properties=species:S:1:pos:R:3:initial_magmoms:R:1 pbc="T T T"
Si       1.35751576      -1.24199848       1.45697917       0.00000000
Si      -1.17072859       1.59157863       1.28653856       0.00000000
Si       1.31591110       1.42752529      -1.34591008       0.00000000
Si      -1.45891124      -1.38342826      -1.34941110       0.00000000
Si      -0.52444026       2.60193819      -2.27896198       0.00000000
Si       2.80278086      -2.43519212       0.09963329       0.00000000
Si      -1.45573469       3.41684382      -0.28384547       0.00000000
Si       0.00635147      -2.59364495      -2.68712296       0.00000000
Si      -2.64871656       0.28429308       2.65950863       0.00000000
Si       0.01247325      -2.70400970       2.69084863       0.00000000
