10
Lattice="16.290000149 0.0 0.0 0.0 16.290000149 0.0 0.0 0.0 29.1751946751" Properties=species:S:1:pos:R:3:initial_magmoms:R:1 pbc="T T T"
Si       1.34210053       1.01317285      -1.63920831       0.00000000
Si       1.42871446      -1.63576900       0.92190698       0.00000000
Si      -1.83894554      -1.16193313      -1.00263474       0.00000000
Si      -0.11013669       1.72395443       1.80390229       0.00000000
H       -2.25983027       1.47209473       0.49005574       0.00000000
Si       2.76920229       2.27610398      -0.23214702       0.00000000
Si       0.62815870       0.39701988       3.59175822       0.00000000
Si       2.62182665      -0.48962039       2.61398074       0.00000000
Si      -2.90491428       2.31208859      -0.58968903       0.00000000
Si       0.14040351      -3.07705071       2.20226039       0.00000000
