10
Lattice="16.290000149 0.0 0.0 0.0 16.290000149 0.0 0.0 0.0 29.1751946751" Properties=species:S:1:pos:R:3:initial_magmoms:R:1 pbc="T T T"
Si      -1.30632769      -1.31472682      -1.44612687       0.00000000
Si      -1.32341590       1.39457714       1.36504901       0.00000000
Si       1.26799732      -1.38702184       1.42876763       0.00000000
Si       1.36829485       1.35784319      -1.37628146       0.00000000
Si      -2.66080862      -2.67031547      -0.11188687       0.00000000
Si       2.66295890       0.02920471       2.69027388       0.00000000
Si       2.69156414      -2.67210737       0.01572543       0.00000000
Si      -2.67002876       2.72649642      -0.04338351       0.00000000
Si       0.07617204       2.76446841       2.68020843       0.00000000
Si      -2.67981905       0.03125888      -2.78308017       0.00000000
