10
Lattice="16.290000149 0.0 0.0 0.0 16.290000149 0.0 0.0 0.0 29.1751946751" Properties=species:S:1:pos:R:3:initial_magmoms:R:1 pbc="T T T"
Si       1.34594497      -1.34490241       1.36528241       0.00000000
Si      -1.35391078       1.32903595       1.40154718       0.00000000
Si      -1.42210072      -1.46004013      -1.22480093       0.00000000
Si       1.46023561       1.43664053      -1.21484927       0.00000000
Si      -0.99606835       0.92564668      -3.42144218       0.00000000
Si       0.04333140       2.77955621      -2.46935347       0.00000000
Si      -2.82841644      -0.09627390      -2.47905714       0.00000000
Si       2.68960934      -2.64839564      -0.05843791       0.00000000
Si      -0.08402382      -2.61423551      -2.78153680       0.00000000
Si      -0.01316232      -2.71474481       2.70856672       0.00000000
