10
Lattice="16.290000149 0.0 0.0 0.0 16.290000149 0.0 0.0 0.0 29.1751946751" Properties=species:S:1:pos:R:3:initial_magmoms:R:1 pbc="T T T"
Si      -1.36847404       1.34794864      -1.34188390       0.00000000
Si      -1.37500633      -1.34239375       1.34249658       0.00000000
Si       1.35223291      -1.35207001      -1.36965869       0.00000000
Si       1.35690814       1.36475992       1.35641315       0.00000000
Si       0.01148445       2.69171075      -2.67667824       0.00000000
Si      -0.01169622      -2.73948932       2.64385614       0.00000000
Si       2.71371854      -2.69379587      -0.00954029       0.00000000
Si      -2.72894970       0.02844234       2.69231614       0.00000000
Si       2.71134020       0.01777239      -2.71294300       0.00000000
Si      -2.72872163      -2.69628824      -0.01840955       0.00000000
