10
Lattice="16.290000149 0.0 0.0 0.0 16.290000149 0.0 0.0 0.0 29.1751946751" Properties=species:S:1:pos:R:3:initial_magmoms:R:1 pbc="T T T"
Si      -1.35742616       1.25558434      -1.44466811       0.00000000
Si      -1.35854529      -1.42040656       1.30348935       0.00000000
Si       1.22549671      -1.37870416      -1.47541877       0.00000000
Si       1.40683699       1.39514077       1.35247450       0.00000000
Si       2.56271024       2.53824266      -0.29440689       0.00000000
Si       0.08573427      -2.61951347       2.68653945       0.00000000
Si       2.57083895      -2.74304055      -0.16942036       0.00000000
Si      -2.75416662       2.57693141      -0.12679540       0.00000000
Si      -0.06327036       2.77084758       2.58375524       0.00000000
Si      -2.78023062      -0.16333983       2.67440257       0.00000000
