10
Lattice="16.290000149 0.0 0.0 0.0 16.290000149 0.0 0.0 0.0 29.1751946751" Properties=species:S:1:pos:R:3:initial_magmoms:R:1 pbc="T T T"
Si      -1.40479423       1.21749832      -1.39288214       0.00000000
Si      -1.30484693      -1.49511250       1.26594087       0.00000000
Si       1.47010735      -1.37570680      -1.23128074       0.00000000
Si       0.68616739       1.87175360       1.29100236       0.00000000
Si       0.26673246      -2.56964978       2.62212062       0.00000000
Si       0.05108544       2.60061707      -2.61237611       0.00000000
Si      -2.74240524       2.51980238       0.03156756       0.00000000
Si       0.06327036      -2.77084758      -2.58375524       0.00000000
Si      -2.69089625      -0.19391616      -2.71055064       0.00000000
Si      -0.96857083       3.52315236       1.18661352       0.00000000
