10
Lattice="16.290000149 0.0 0.0 0.0 16.290000149 0.0 0.0 0.0 29.1751946751" Properties=species:S:1:pos:R:3:initial_magmoms:R:1 pbc="T T T"
H       -0.88368364       0.84957238      -0.89001849       0.00000000
Si       1.03591369      -1.48644622      -1.46850425       0.00000000
Si      -1.39497787      -1.23168691       1.42681290       0.00000000
Si       1.89723116       1.30161988       0.63079688       0.00000000
Si       1.94795822       0.34901325      -2.64190140       0.00000000
Si       0.01513341       1.84010213      -2.95897742       0.00000000
H       -2.77698891       0.42269292      -2.12949746       0.00000000
Si       2.14578398       0.78757264       2.92925052       0.00000000
Si       0.00319284      -2.65675241       2.65109159       0.00000000
Si       2.53612496      -2.79824736      -0.17423426       0.00000000
