10
Lattice="16.290000149 0.0 0.0 0.0 16.290000149 0.0 0.0 0.0 29.1751946751" Properties=species:S:1:pos:R:3:initial_magmoms:R:1 pbc="T T T"
Si       1.44127407      -1.34700382       1.28257073       0.00000000
Si      -1.25604046      -1.36865323      -1.45636737       0.00000000
Si       1.38095218       1.32413266      -1.38748473       0.00000000
Si      -1.42356682       1.28508553       1.41304220       0.00000000
Si       0.10371843      -2.76698685       2.58066267       0.00000000
Si      -2.69156414       2.67210737      -0.01572543       0.00000000
Si      -0.02860524       2.70131208       2.67454845       0.00000000
Si      -2.70585047      -0.31341960       2.68079194       0.00000000
Si      -2.59017518      -2.82054837      -0.20460564       0.00000000
Si       2.74979275       2.69619702      -0.05569545       0.00000000
