10
Lattice="16.290000149 0.0 0.0 0.0 16.290000149 0.0 0.0 0.0 29.1751946751" Properties=species:S:1:pos:R:3:initial_magmoms:R:1 pbc="T T T"
Si      -0.98005528       1.85683196      -0.89500745       0.00000000
Si      -1.76964788      -1.47556450       0.33426021       0.00000000
Si       0.38105568       0.64741348       2.22236210       0.00000000
Si       1.75979243      -0.96485671      -1.26147707       0.00000000
H       -0.38990115      -1.21671640      -2.57532361       0.00000000
Si       1.86940784      -1.22078890       2.57252279       0.00000000
Si       2.49808781      -2.29179125       0.52637886       0.00000000
Si      -2.46728342       0.84808999      -2.36782962       0.00000000
Si      -1.07157250      -3.51925579      -0.43290154       0.00000000
Si      -3.58823091      -0.59139217      -0.81670122       0.00000000
