10
Lattice="16.290000149 0.0 0.0 0.0 16.290000149 0.0 0.0 0.0 29.1751946751" Properties=species:S:1:pos:R:3:initial_magmoms:R:1 pbc="T T T"
Si      -1.57157939       1.07453728      -1.35617975       0.00000000
Si       1.38608353      -1.48037005      -1.21249192       0.00000000
Si      -0.84877417      -1.48902004       1.63060163       0.00000000
Si       0.42694461       1.81076384       1.48805163       0.00000000
H        0.34780779      -1.12405888       2.52097022       0.00000000
Si      -1.88307678       1.98941627       2.08494694       0.00000000
Si      -0.26673246       2.56964978      -2.62212062       0.00000000
Si      -3.05297409       2.15073614       0.07048727       0.00000000
Si       2.70229925      -0.12364110      -2.59770098       0.00000000
Si      -0.11772783      -2.82071127      -2.51933641       0.00000000
