10
Lattice="16.290000149 0.0 0.0 0.0 16.290000149 0.0 0.0 0.0 29.1751946751" Properties=species:S:1:pos:R:3:initial_magmoms:R:1 pbc="T T T"
Si       1.34239864       1.35997066       1.35440006       0.00000000
Si      -1.33600807       1.37487601      -1.35364151       0.00000000
Si       1.36535939      -1.35104374      -1.34970286       0.00000000
Si      -1.35448093      -1.34656399       1.37421002       0.00000000
Si      -2.69456150       0.01014867      -2.68481811       0.00000000
Si       2.67439448       0.00275301       2.71831124       0.00000000
Si      -0.00433314      -2.72010422      -2.67481102       0.00000000
Si       2.69319314      -2.71200809       0.02415706       0.00000000
Si      -2.68679117       2.71958294       0.01178678       0.00000000
Si       2.69369813       2.72166806      -0.01280791       0.00000000
