10
Lattice="16.290000149 0.0 0.0 0.0 16.290000149 0.0 0.0 0.0 29.1751946751" Properties=species:S:1:pos:R:3:initial_magmoms:R:1 pbc="T T T"
Si       1.34651512       1.33302700       1.38880929       0.00000000
Si       1.33046947      -1.44031294      -1.31394574       0.00000000
Si      -1.34136748      -1.41827257       1.36001337       0.00000000
Si      -1.42711804       1.36718713      -1.33428960       0.00000000
H        0.48716874       1.65187118      -3.21255654       0.00000000
Si      -2.76519495       2.52138251       0.22244627       0.00000000
Si       2.64966626       2.68684004      -0.04530616       0.00000000
Si      -2.73559602      -0.07951149      -2.70385785       0.00000000
Si      -0.06481791      -2.76192066      -2.67914646       0.00000000
Si       2.69516423      -0.05181849       2.75029892       0.00000000
