10
Lattice="16.290000149 0.0 0.0 0.0 16.290000149 0.0 0.0 0.0 29.1751946751" Properties=species:S:1:pos:R:3:initial_magmoms:R:1 pbc="T T T"
Si       1.35972631       1.36225126      -1.34518070       0.00000000
Si      -1.36521604      -1.35529543      -1.34783564       0.00000000
Si       1.34969167      -1.37578825       1.34526823       0.00000000
Si      -1.37487601       1.36490653       1.33216856       0.00000000
Si      -0.02366937       2.70036074      -2.69584634       0.00000000
Si       2.72883567      -0.01684386      -2.66795485       0.00000000
Si       0.00431685      -2.71857296      -2.68461389       0.00000000
Si      -0.02702511       2.72740214       2.68192977       0.00000000
Si       2.73199592      -0.03552849       2.67775772       0.00000000
Si      -2.71461449      -2.70606224       0.02649108       0.00000000
