10
Lattice="16.290000149 0.0 0.0 0.0 16.290000149 0.0 0.0 0.0 29.1751946751" Properties=species:S:1:pos:R:3:initial_magmoms:R:1 pbc="T T T"
Si      -1.39674045       1.32134707       1.31787272       0.00000000
Si       1.35742616      -1.25558434       1.44466811       0.00000000
Si       1.29208697       1.39149181      -1.38623020       0.00000000
Si      -1.38646146      -1.37642356      -1.30996624       0.00000000
Si       2.58292288      -2.63428850      -0.03075066       0.00000000
Si      -0.11063842       2.73276155       2.63554121       0.00000000
Si      -2.70204187       2.69369813      -0.03299715       0.00000000
Si       2.64065464       0.04082274      -2.76257001       0.00000000
Si       2.62195372       2.78515020      -0.05166927       0.00000000
Si      -2.72054731      -0.01137042      -2.69082820       0.00000000
