10
Lattice="16.290000149 0.0 0.0 0.0 16.290000149 0.0 0.0 0.0 29.1751946751" Properties=species:S:1:pos:R:3:initial_magmoms:R:1 pbc="T T T"
Si      -0.65301724       0.42327936      -2.13157473       0.00000000
Si      -1.90781966      -0.79026049       1.12187376       0.00000000
Si       0.85737529       1.93644119       1.04053624       0.00000000
Si       1.70522093      -1.66842182      -0.12724703       0.00000000
H       -1.21269277      -2.61847091      -0.79963957       0.00000000
Si       2.17214120       0.67261411       2.51311334       0.00000000
Si      -0.65839294      -2.16067304       2.53522522       0.00000000
Si       3.43031565      -0.72809785       1.14837067       0.00000000
Si       0.83944000      -3.39635752       1.25514605       0.00000000
Si      -2.35460549       2.02080710      -2.14627903       0.00000000
