10
Lattice="16.290000149 0.0 0.0 0.0 16.290000149 0.0 0.0 0.0 29.1751946751" Properties=species:S:1:pos:R:3:initial_magmoms:R:1 pbc="T T T"
Si      -1.31536864       1.32310476       1.40073027       0.00000000
Si       0.98881930       1.78706026      -1.15272361       0.00000000
Si       1.38289069      -1.32451953       1.36566460       0.00000000
Si      -1.29805237      -1.28349498      -1.50598854       0.00000000
Si      -2.51835257       2.72005373      -0.04084819       0.00000000
Si       1.07197975       1.09460493      -3.38250789       0.00000000
Si      -2.63318078      -2.64867420      -0.09783318       0.00000000
Si      -0.64426951       3.52253171      -1.23648093       0.00000000
Si       0.11315034       2.72717246       2.64330765       0.00000000
Si       0.03303612      -2.71968231       2.67618809       0.00000000
