10
Lattice="16.290000149 0.0 0.0 0.0 16.290000149 0.0 0.0 0.0 29.1751946751" Properties=species:S:1:pos:R:3:initial_magmoms:R:1 pbc="T T T"
Si      -1.30896667      -1.28941867       1.47051734       0.00000000
Si      -1.34892604       1.36234900      -1.37617935       0.00000000
Si       1.43146747      -1.37173204      -1.28460424       0.00000000
Si       1.37192752       1.40621797       1.31212521       0.00000000
Si      -2.62097957      -2.64940562       0.12498070       0.00000000
Si       2.64847709       0.06256989      -2.72703462       0.00000000
Si       2.74623339      -2.63555912       0.18797286       0.00000000
Si      -2.71280630       2.71019990       0.01375902       0.00000000
Si       2.71125875       0.06939540       2.73374492       0.00000000
Si      -2.73768114      -0.01653435      -2.71781526       0.00000000
