10
Lattice="16.290000149 0.0 0.0 0.0 16.290000149 0.0 0.0 0.0 29.1751946751" Properties=species:S:1:pos:R:3:initial_magmoms:R:1 pbc="T T T"
Si       1.56730978      -1.09924921       1.32009003       0.00000000
Si      -1.23730696      -1.13005360      -1.62278268       0.00000000
Si      -1.57304386      -0.02352276       1.80043044       0.00000000
Si       1.28228365       1.59850513      -1.26774973       0.00000000
H        0.92872549      -1.92647171       2.39887203       0.00000000
Si      -1.73643257       2.26717706       2.04628980       0.00000000
H       -0.67728934      -2.84496708       2.04696083       0.00000000
Si      -2.63958275      -2.44288100      -0.36751993       0.00000000
Si       2.80956891      -2.45356724      -0.10012927       0.00000000
Si       2.70585047       0.31341960      -2.68079194       0.00000000
