10
Lattice="16.290000149 0.0 0.0 0.0 16.290000149 0.0 0.0 0.0 29.1751946751" Properties=species:S:1:pos:R:3:initial_magmoms:R:1 pbc="T T T"
Si       0.84569536      -1.84531493       1.12251562       0.00000000
Si      -1.72139690       0.75917917       1.37704001       0.00000000
Si      -1.07504227      -0.08687457      -2.09950536       0.00000000
Si       1.79760152       1.59596389       0.12215654       0.00000000
H        2.33349365       1.85453507      -1.26249820       0.00000000
H       -1.15417909      -3.02169729      -1.06658677       0.00000000
H        1.67321108       0.91610074      -2.85628073       0.00000000
Si      -0.36191493       2.10427706       2.71813619       0.00000000
Si       2.56119527      -2.28687167      -0.40255934       0.00000000
Si      -0.61686973       2.12130011      -2.70850837       0.00000000
