10
Lattice="16.290000149 0.0 0.0 0.0 16.290000149 0.0 0.0 0.0 29.1751946751" Properties=species:S:1:pos:R:3:initial_magmoms:R:1 pbc="T T T"
Si      -1.31201290      -1.35998695      -1.34553664       0.00000000
Si       1.31707909      -1.39154068       1.34150463       0.00000000
Si      -1.41898933       1.33069753       1.30211811       0.00000000
Si       1.30896667       1.28941867      -1.47051734       0.00000000
Si      -0.04584006       2.65727369       2.66588341       0.00000000
Si       2.69549003      -0.02780703       2.64656943       0.00000000
Si       2.68089419       2.69563664      -0.15839213       0.00000000
Si       2.64433943      -2.75038734      -0.02465304       0.00000000
Si      -2.77035888      -0.04445541       2.64922438       0.00000000
Si      -2.77053807       2.64953594      -0.10578926       0.00000000
