10
Lattice="16.290000149 0.0 0.0 0.0 16.290000149 0.0 0.0 0.0 29.1751946751" Properties=species:S:1:pos:R:3:initial_magmoms:R:1 pbc="T T T"
Si       1.33382521       1.33134913      -1.39600389       0.00000000
Si      -1.19910691       1.47284407       1.42932196       0.00000000
Si       1.47167119      -1.20956509       1.45403335       0.00000000
Si      -1.56452419      -1.12405888      -1.46652034       0.00000000
H        1.82777060      -3.01843929      -0.79639529       0.00000000
Si      -0.16638606       2.64315026      -2.69027388       0.00000000
Si      -2.52573194       0.09021402       2.80488863       0.00000000
Si       2.92506501       2.46189143      -0.05677493       0.00000000
Si      -2.59727762       2.89790958       0.20504327       0.00000000
H        2.02365785       3.20422674       0.92062327       0.00000000
