10
Lattice="16.290000149 0.0 0.0 0.0 16.290000149 0.0 0.0 0.0 29.1751946751" Properties=species:S:1:pos:R:3:initial_magmoms:R:1 pbc="T T T"
Si       1.77383441       1.00334998       1.15504596       0.00000000
Si       1.33761101      -1.30230406      -1.42444970       0.00000000
Si      -1.23574312       1.48670686      -1.36274417       0.00000000
Si      -1.29700981      -1.29728674       1.49954666       0.00000000
H       -3.13463586      -0.81427195      -1.59398676       0.00000000
Si      -2.29428362       0.46911942       2.76364949       0.00000000
Si      -2.49605156       0.01295055      -2.67276876       0.00000000
Si       3.42857262      -0.64804879       1.25943480       0.00000000
Si       2.74240524      -2.51980238      -0.03156756       0.00000000
Si       2.69651630       2.73264752      -0.12557004       0.00000000
