10
Lattice="16.290000149 0.0 0.0 0.0 16.290000149 0.0 0.0 0.0 29.1751946751" Properties=species:S:1:pos:R:3:initial_magmoms:R:1 pbc="T T T"
Si       1.81858304      -0.88417234       1.15096143       0.00000000
Si      -0.87628798       1.77963365       1.28426289       0.00000000
Si       1.12094749       1.43948215      -1.55112840       0.00000000
Si      -1.02151333      -2.15091533      -0.38887617       0.00000000
H       -1.92617849      -0.58033126      -1.88422160       0.00000000
Si       2.60817563       2.44822412      -0.07830622       0.00000000
Si      -0.04828356      -2.55329625      -2.54153873       0.00000000
Si      -1.95761819       0.61265062       2.98885282       0.00000000
Si       0.99722494       3.24185664       1.43845380       0.00000000
H        3.19832976      -0.62532424      -1.75862238       0.00000000
