10
Lattice="16.290000149 0.0 0.0 0.0 16.290000149 0.0 0.0 0.0 29.1751946751" Properties=species:S:1:pos:R:3:initial_magmoms:R:1 pbc="T T T"
Si      -1.45557667       1.34656399       1.23548197       0.00000000
Si       1.34607529       1.34972425      -1.35445841       0.00000000
Si       1.33768594      -1.34379469       1.38935195       0.00000000
Si      -1.38769624      -1.34687350      -1.33978329       0.00000000
Si      -0.16433352      -2.70563870       2.55058304       0.00000000
Si       2.71577108       2.66543498       0.03270539       0.00000000
Si      -0.01767465      -2.73481410      -2.64855335       0.00000000
Si       2.70591563      -0.01850544      -2.68400121       0.00000000
Si      -0.01477503       2.67077810      -2.74133047       0.00000000
Si       2.72852615      -2.69684210       0.07503860       0.00000000
