10
Lattice="16.290000149 0.0 0.0 0.0 16.290000149 0.0 0.0 0.0 29.1751946751" Properties=species:S:1:pos:R:3:initial_magmoms:R:1 pbc="T T T"
Si       1.37163430       1.36111096       1.32519569       0.00000000
Si       1.38595321      -1.31414689      -1.35787191       0.00000000
Si      -1.35537688       1.37093383      -1.33855793       0.00000000
Si      -1.35658234      -1.35324289       1.35965160       0.00000000
Si       0.00754227      -2.67788054      -2.66293672       0.00000000
Si      -0.00746082       2.70682787       2.64648191       0.00000000
Si       0.02314809       2.68827356      -2.70384034       0.00000000
Si       2.71539641      -2.68074758       0.01788439       0.00000000
Si      -2.73452087       0.01198944       2.67466515       0.00000000
Si      -2.73351089      -2.68947902       0.01391657       0.00000000
