10
Lattice="16.290000149 0.0 0.0 0.0 16.290000149 0.0 0.0 0.0 29.1751946751" Properties=species:S:1:pos:R:3:initial_magmoms:R:1 pbc="T T T"
H        1.08017362      -1.71294239      -0.78685763       0.00000000
Si      -0.24855282       0.51404724      -2.29845364       0.00000000
Si       1.94197979       0.85199959       1.06216410       0.00000000
Si      -1.74615770       1.54225576       0.45150393       0.00000000
Si      -0.83411317      -1.99762643       1.09140931       0.00000000
Si       0.71014627       2.05324961       2.65809685       0.00000000
Si      -2.17219007      -0.84343105       2.64814519       0.00000000
Si       1.98158078      -2.45527769      -1.76425582       0.00000000
Si      -2.14578398      -0.78757264      -2.92925052       0.00000000
Si      -0.70675795       3.39616530       1.40359265       0.00000000
