10
Lattice="16.290000149 0.0 0.0 0.0 16.290000149 0.0 0.0 0.0 29.1751946751" Properties=species:S:1:pos:R:3:initial_magmoms:R:1 pbc="T T T"
Si       2.30057156       0.05999607      -0.45099016       0.00000000
Si      -0.86185504       2.07645374      -0.79362365       0.00000000
Si      -0.14356377       0.41544387       2.35796841       0.00000000
Si      -0.92168821      -2.08002125      -0.81340443       0.00000000
H       -2.31031298       0.19899864       0.91589689       0.00000000
H       -1.01674036       2.87191074       0.48220762       0.00000000
Si      -3.59161923       0.15928362       0.09578216       0.00000000
Si      -2.98988292      -1.35984849      -1.66237342       0.00000000
Si       3.07216371       2.10517301       0.42697897       0.00000000
Si       2.06071760       0.03336192       3.16095729       0.00000000
