10
Lattice="16.290000149 0.0 0.0 0.0 16.290000149 0.0 0.0 0.0 29.1751946751" Properties=species:S:1:pos:R:3:initial_magmoms:R:1 pbc="T T T"
Si       1.29064042      -1.41579649       1.35644233       0.00000000
Si      -1.32504490       1.06321573       1.62777164       0.00000000
Si      -1.40556637      -1.36225126      -1.31828117       0.00000000
Si       1.31670442       1.32447475      -1.44475564       0.00000000
H       -2.51348186       1.56097297       0.82632904       0.00000000
Si       2.70275375       0.02327841       2.53173587       0.00000000
Si      -2.01619703      -0.79285060       3.04475249       0.00000000
H       -1.86944042       3.22392135      -0.29662420       0.00000000
Si      -0.34358868      -2.47523294       2.78876933       0.00000000
Si       2.60280645       2.73588924      -0.12708715       0.00000000
