10
Lattice="16.290000149 0.0 0.0 0.0 16.290000149 0.0 0.0 0.0 29.1751946751" Properties=species:S:1:pos:R:3:initial_magmoms:R:1 pbc="T T T"
Si      -1.45712422      -1.29709126       1.30582336       0.00000000
Si       1.37002159      -1.38794059      -1.30877006       0.00000000
Si      -1.36910935       1.32367654      -1.37914063       0.00000000
Si       1.38769624       1.34687350       1.33978329       0.00000000
Si      -0.06788043       2.69343749       2.57526526       0.00000000
Si      -0.21927969      -2.68623731       2.68000421       0.00000000
Si       2.72367173      -0.03784167      -2.67944988       0.00000000
Si       0.01034415      -2.73470007      -2.67472350       0.00000000
Si      -0.00938304       2.67739184      -2.73403667       0.00000000
Si       2.73377154       2.69659775      -0.01467512       0.00000000
