10
Lattice="16.290000149 0.0 0.0 0.0 16.290000149 0.0 0.0 0.0 29.1751946751" Properties=species:S:1:pos:R:3:initial_magmoms:R:1 pbc="T T T"
Si       1.36790389      -1.34254036       1.35381656       0.00000000
Si       1.37801998       1.35413884      -1.33222691       0.00000000
Si      -1.31991355       1.36909306       1.38345856       0.00000000
Si      -1.36515088      -1.36340785      -1.35250367       0.00000000
Si      -0.00487071       2.71273626      -2.65450509       0.00000000
Si      -0.01861947      -2.70212006       2.67020134       0.00000000
Si       2.72837954      -0.02303406      -2.68038349       0.00000000
Si      -2.68162724       0.02023218       2.73602058       0.00000000
Si      -2.70980894       2.71683319       0.04991876       0.00000000
Si       2.72184725      -2.71337645       0.00399700       0.00000000
