10
Lattice="16.290000149 0.0 0.0 0.0 16.290000149 0.0 0.0 0.0 29.1751946751" Properties=species:S:1:pos:R:3:initial_magmoms:R:1 pbc="T T T"
Si       1.35609364      -1.39546169      -1.28875587       0.00000000
Si       1.39264840       1.34311051       1.32904682       0.00000000
Si      -1.32531857      -1.38255838       1.36154799       0.00000000
Si      -1.29409879       1.35311257      -1.43133505       0.00000000
Si      -2.64515507       2.67902084      -0.02485727       0.00000000
Si       2.70228296      -0.06498081      -2.63510942       0.00000000
Si       0.03215646       2.69708645       2.68239657       0.00000000
Si      -2.65636681      -0.04202820      -2.74936823       0.00000000
Si      -2.63893734      -2.76714975      -0.00186721       0.00000000
Si      -2.70467759      -0.03520269       2.70386952       0.00000000
