10
Lattice="16.290000149 0.0 0.0 0.0 16.290000149 0.0 0.0 0.0 29.1751946751" Properties=species:S:1:pos:R:3:initial_magmoms:R:1 pbc="T T T"
Si      -1.35620767      -0.57923983      -0.26963715       0.00000000
H        0.93387313      -1.78443920      -0.41740951       0.00000000
H        1.59415570      -0.84600487       1.17637302       0.00000000
Si       1.05826357      -1.10457604       2.56102776       0.00000000
Si      -2.72008793       0.77330260       1.05191164       0.00000000
Si      -1.82188991      -0.15677496      -2.47980402       0.00000000
Si       2.06643539      -1.85399750      -1.41563880       0.00000000
Si      -1.17985213       2.08621145       2.24155938       0.00000000
Si       0.00783549       1.13722120      -3.11938264       0.00000000
Si      -1.81438022      -2.78741451       0.33936586       0.00000000
