10
Lattice="16.290000149 0.0 0.0 0.0 16.290000149 0.0 0.0 0.0 29.1751946751" Properties=species:S:1:pos:R:3:initial_magmoms:R:1 pbc="T T T"
Si      -1.39264840      -1.34311051      -1.32904682       0.00000000
Si      -1.36049194       1.35397594       1.35334976       0.00000000
Si       1.33024141      -1.36919080       1.37266373       0.00000000
Si       1.36039420       1.34519563      -1.37120497       0.00000000
Si      -0.03655476      -2.73857220      -2.61780269       0.00000000
Si       2.70715367       2.70189200      -0.00828576       0.00000000
Si      -2.70305511       2.71270856      -0.00936524       0.00000000
Si       2.68956047      -2.72727671       0.03355147       0.00000000
Si      -0.01177767       2.71440272       2.70281921       0.00000000
Si       2.70425405      -0.02322954       2.71615227       0.00000000
