10
Lattice="16.290000149 0.0 0.0 0.0 16.290000149 0.0 0.0 0.0 29.1751946751" Properties=species:S:1:pos:R:3:initial_magmoms:R:1 pbc="T T T"
Si      -1.36884057      -1.37206436      -1.33178929       0.00000000
Si       1.34688165       1.35284542      -1.37648568       0.00000000
Si       1.40726868      -1.33558324       1.33485268       0.00000000
Si      -1.39451361       1.33912924       1.34798152       0.00000000
Si      -0.01375528       2.69848088       2.68172554       0.00000000
Si       0.06233694      -2.68041201       2.70144798       0.00000000
Si      -2.70230740      -0.00612015      -2.70232323       0.00000000
Si      -2.70079243       2.71828952      -0.02643273       0.00000000
Si       2.70313819       2.71882709      -0.03856961       0.00000000
Si       0.00069884      -2.71033674      -2.71355568       0.00000000
