10
Lattice="16.290000149 0.0 0.0 0.0 16.290000149 0.0 0.0 0.0 29.1751946751" Properties=species:S:1:pos:R:3:initial_magmoms:R:1 pbc="T T T"
Si       0.16338870      -2.29069982      -0.24585937       0.00000000
Si      -1.74330695      -0.34072327       1.49032729       0.00000000
Si      -0.98785819       0.83156541      -1.99640022       0.00000000
Si       1.83894554       1.16193313       1.00263474       0.00000000
H       -0.42088473       2.63402786       1.49269049       0.00000000
Si      -2.50861115       2.14654961      -0.79741642       0.00000000
Si       1.73643257      -2.26717706      -2.04628980       0.00000000
Si      -1.06596874       3.47402172       0.41294571       0.00000000
Si      -3.66749805       0.70605585       0.70977414       0.00000000
Si       0.40768983      -3.21559716       1.98951488       0.00000000
