10
Lattice="10.86 0.0 0.0 0.0 10.86 0.0 0.0 0.0 10.86" Properties=species:S:1:pos:R:3:initial_magmoms:R:1 pbc="T T T"
Si      -1.21208460       1.37056458      -1.18380516       0.00000000
Si       1.50291540      -1.34443542      -1.18380516       0.00000000
Si      -1.21208460      -1.34443542       1.53119484       0.00000000
Si       1.56859668       1.46313522       1.39733448       0.00000000
Si      -2.56958460       0.01306458      -2.54130516       0.00000000
Si       0.14541540      -2.70193542      -2.54130516       0.00000000
Si       0.14541540       2.72806458      -2.54130516       0.00000000
Si      -2.56958460      -2.70193542       0.17369484       0.00000000
Si      -2.56958460       2.72806458       0.17369484       0.00000000
Si       2.86041540       0.01306458      -2.54130516       0.00000000
