10
Lattice="10.86 0.0 0.0 0.0 10.86 0.0 0.0 0.0 10.86" Properties=species:S:1:pos:R:3:initial_magmoms:R:1 pbc="T T T"
Si      -1.34631420       1.25241864      -1.33926606       0.00000000
Si       1.36868580       1.25241864       1.37573394       0.00000000
Si      -1.34631420      -1.46258136       1.37573394       0.00000000
Si       0.01118580       2.60991864      -2.69676606       0.00000000
Si      -2.70381420       2.60991864       0.01823394       0.00000000
Si       2.72618580       2.60991864       0.01823394       0.00000000
Si       0.01118580       2.60991864       2.73323394       0.00000000
Si      -2.70381420      -0.10508136       2.73323394       0.00000000
Si       2.72618580      -0.10508136       2.73323394       0.00000000
Si       0.01118580      -2.82008136       2.73323394       0.00000000
