10
Lattice="10.86 0.0 0.0 0.0 10.86 0.0 0.0 0.0 10.86" Properties=species:S:1:pos:R:3:initial_magmoms:R:1 pbc="T T T"
Si       1.35451350      -1.29114540      -1.34394672       0.00000000
Si      -1.36048650      -1.29114540       1.37105328       0.00000000
Si       1.35451350       1.42385460       1.37105328       0.00000000
Si       0.25357014      -2.59087020      -2.74232376       0.00000000
Si       2.71201350      -2.64864540       0.01355328       0.00000000
Si      -0.00298650      -2.64864540       2.72855328       0.00000000
Si       2.71201350       0.06635460      -2.70144672       0.00000000
Si      -2.69647284      -2.72999766       0.07070946       0.00000000
Si       2.71201350       0.06635460       2.72855328       0.00000000
Si      -2.71798650       0.06635460       2.72855328       0.00000000
