10
Lattice="10.86 0.0 0.0 0.0 10.86 0.0 0.0 0.0 10.86" Properties=species:S:1:pos:R:3:initial_magmoms:R:1 pbc="T T T"
Si       1.27100010      -1.33573656      -1.05589608       0.00000000
Si      -1.44399990       1.37926344      -1.05589608       0.00000000
Si       1.27100010       1.37926344       1.65910392       0.00000000
Si      -1.14918348      -1.51010472       1.97265384       0.00000000
Si       2.62850010       0.02176344      -2.41339608       0.00000000
Si      -0.08649990      -2.69323656      -2.41339608       0.00000000
Si      -0.08649990       2.73676344      -2.41339608       0.00000000
Si      -2.80149990       0.02176344      -2.41339608       0.00000000
Si       2.62850010       2.73676344       0.30160392       0.00000000
Si      -2.96295552      -2.45778090       0.47375664       0.00000000
