10
Lattice="10.86 0.0 0.0 0.0 10.86 0.0 0.0 0.0 10.86" Properties=species:S:1:pos:R:3:initial_magmoms:R:1 pbc="T T T"
Si       1.36676358       1.40260158       1.21801416       0.00000000
Si       1.36676358      -1.31239842      -1.49698584       0.00000000
Si      -1.34823642       1.40260158      -1.49698584       0.00000000
Si       2.72426358       0.04510158       2.57551416       0.00000000
Si       0.00926358       2.76010158       2.57551416       0.00000000
Si      -2.69443116       0.09320052       2.69310624       0.00000000
Si       2.72426358      -2.66989842      -0.13948584       0.00000000
Si      -2.70573642       2.76010158      -0.13948584       0.00000000
Si       2.72426358       2.76010158      -0.13948584       0.00000000
Si       2.72426358       0.04510158      -2.85448584       0.00000000
