10
Lattice="16.28999089631971 0.0 0.0 0.0 16.28999089631971 0.0 0.0 0.0 34.433804113860816" Properties=species:S:1:pos:R:3:initial_magmoms:R:1 pbc="T T T"
Si      -1.34988998      -1.35069512       1.38874709       0.00000000
Si       1.36499721       1.36259334       1.38509710       0.00000000
Si      -1.32882701       1.36619343      -1.49609453       0.00000000
Si       1.30443750      -1.47601735      -1.45119971       0.00000000
Si      -2.70072194      -2.70773099       0.00446607       0.00000000
Si       2.70893361      -2.71998107       0.02440669       0.00000000
Si      -2.69713814       2.73613356       0.00151509       0.00000000
Si       2.72159094       2.72528442       0.01239962       0.00000000
Si      -2.70873662       0.00697212       2.74943405       0.00000000
Si       0.00698924      -2.70961387       2.74950292       0.00000000
