10
Lattice="16.28999089631971 0.0 0.0 0.0 16.28999089631971 0.0 0.0 0.0 34.433804113860816" Properties=species:S:1:pos:R:3:initial_magmoms:R:1 pbc="T T T"
Si       1.07342955       1.70553042       1.30801699       0.00000000
Si      -1.80231420      -1.16878795       1.18801167       0.00000000
Si       1.21349097      -2.12822334      -0.37211397       0.00000000
Si      -0.05585841       1.41651324      -2.08096132       0.00000000
Si      -1.50098341      -0.43521993      -2.67432497       0.00000000
Si       0.39806244      -2.02033467      -2.65073780       0.00000000
Si       2.36040471       0.30398769       2.65056421       0.00000000
Si      -0.39781809      -2.41275167       2.66361808       0.00000000
Si       2.45052099       2.88621333      -0.23816640       0.00000000
Si       1.95955668       0.97577100      -3.30900920       0.00000000
