10
Lattice="16.28999089631971 0.0 0.0 0.0 16.28999089631971 0.0 0.0 0.0 34.433804113860816" Properties=species:S:1:pos:R:3:initial_magmoms:R:1 pbc="T T T"
Si       1.45745001       1.55221613       1.05749715       0.00000000
Si      -0.75863019      -1.19234655       2.05900490       0.00000000
Si       1.20151782      -1.50790014      -1.62524203       0.00000000
Si       0.85623498       0.49285395      -3.05827446       0.00000000
Si      -0.44159584       3.13733087       1.03390998       0.00000000
Si      -2.57089499       2.14018087       1.38489394       0.00000000
Si       1.30969971       2.72646449      -2.29601291       0.00000000
Si       2.86262541       2.43945423      -0.57525145       0.00000000
Si      -0.58237402      -3.11068953      -2.16636956       0.00000000
Si      -3.66696764       1.09571427      -0.71660230       0.00000000
