10
Lattice="16.28999089631971 0.0 0.0 0.0 16.28999089631971 0.0 0.0 0.0 34.433804113860816" Properties=species:S:1:pos:R:3:initial_magmoms:R:1 pbc="T T T"
Si      -1.35700587      -1.33401321      -1.36519779       0.00000000
Si       1.36855548       1.37288699      -1.35662377       0.00000000
Si      -1.31097033       1.32668855       1.45593092       0.00000000
Si       1.07212635      -1.63857105       1.35369690       0.00000000
Si       2.22221664       0.25258134       2.64499971       0.00000000
Si       0.52316964       2.19501071       2.88173224       0.00000000
Si      -0.85620240      -3.47818446       1.18266410       0.00000000
Si      -2.71104696      -2.68311843       0.00079198       0.00000000
Si       0.00695583      -2.70035325      -2.71507254       0.00000000
Si      -2.70492192       0.01320630      -2.71937677       0.00000000
