10
Lattice="16.28999089631971 0.0 0.0 0.0 16.28999089631971 0.0 0.0 0.0 34.433804113860816" Properties=species:S:1:pos:R:3:initial_magmoms:R:1 pbc="T T T"
Si       1.28697516      -1.40154273       1.34254723       0.00000000
Si       1.37709144       1.18068291      -1.54618339       0.00000000
Si      -1.45859031       1.32698340       1.34359401       0.00000000
Si      -1.07342955      -1.70553042      -1.30801699       0.00000000
Si      -1.12928796      -0.28901718      -3.38897831       0.00000000
Si       2.51115237       2.60990235       0.02534674       0.00000000
Si       2.61641835      -0.04324995       2.72155987       0.00000000
Si      -0.10557549       2.68547166       2.72190421       0.00000000
Si      -0.09800064      -2.75346123       2.71842639       0.00000000
Si      -2.86814935       2.64979656      -0.10957531       0.00000000
