10
Lattice="16.28999089631971 0.0 0.0 0.0 16.28999089631971 0.0 0.0 0.0 34.433804113860816" Properties=species:S:1:pos:R:3:initial_magmoms:R:1 pbc="T T T"
Si      -0.65849067       1.02315861       2.00094948       0.00000000
Si       0.47762280       1.51891218      -1.73260669       0.00000000
Si      -1.64841768      -1.45018467      -0.93281227       0.00000000
Si       1.97907210      -1.32491457       0.32636378       0.00000000
Si       1.16900298      -0.04647537      -3.48453075       0.00000000
Si      -0.33625818      -3.27771253      -1.72124353       0.00000000
Si       1.26245871       2.08461501       2.81279573       0.00000000
Si       1.29854106      -3.52101997      -0.04844839       0.00000000
Si      -1.09833696      -0.69887358       3.52764190       0.00000000
Si      -2.80758150      -2.52073089       0.83240325       0.00000000
