10
Lattice="16.28999089631971 0.0 0.0 0.0 16.28999089631971 0.0 0.0 0.0 34.433804113860816" Properties=species:S:1:pos:R:3:initial_magmoms:R:1 pbc="T T T"
Si       1.09188612      -1.41729516      -1.51288446       0.00000000
Si      -1.37709144      -1.18068291       1.54618339       0.00000000
Si       1.13406093       1.42921944       1.57153012       0.00000000
Si       1.67599665       1.07504226      -1.40741366       0.00000000
Si      -2.50637940      -1.46970009      -1.84279492       0.00000000
Si       1.93064193       3.06291096      -0.01608060       0.00000000
Si      -0.49096431      -1.91044233      -3.07084280       0.00000000
Si      -2.45052099      -2.88621333       0.23816640       0.00000000
Si      -0.09011628      -2.58222564       2.88873061       0.00000000
Si       2.61021186       0.13471830       2.88827264       0.00000000
