10
Lattice="16.28999089631971 0.0 0.0 0.0 16.28999089631971 0.0 0.0 0.0 34.433804113860816" Properties=species:S:1:pos:R:3:initial_magmoms:R:1 pbc="T T T"
Si       0.19383471      -0.20199600      -2.37827531       0.00000000
Si      -1.67599665      -1.07504226       1.40741366       0.00000000
Si       0.25464528       1.98786870       1.39133307       0.00000000
Si      -0.58411053      -2.49233742      -0.10547080       0.00000000
Si      -0.54193572       0.35417718       2.97894379       0.00000000
Si      -1.77909606       3.15146340       0.12217121       0.00000000
Si       0.49340781       2.02817016      -3.05541645       0.00000000
Si      -1.72711467      -1.26345240      -3.19012156       0.00000000
Si       2.21877945      -1.29461517      -2.94336879       0.00000000
Si      -2.16696096      -2.98548459      -1.66342914       0.00000000
