10
Lattice="16.28999089631971 0.0 0.0 0.0 16.28999089631971 0.0 0.0 0.0 34.433804113860816" Properties=species:S:1:pos:R:3:initial_magmoms:R:1 pbc="T T T"
Si       1.35544203       1.35664749      -1.35755349       0.00000000
Si      -1.35711990       1.35711990       1.35731245       0.00000000
Si      -1.35744570      -1.35770634      -1.35672707       0.00000000
Si       1.35738054      -1.35728280       1.35776009       0.00000000
Si      -0.00434943      -2.71026504      -2.71589895       0.00000000
Si      -2.71147213       0.00087966      -2.71755177       0.00000000
Si      -2.71443691       2.71469592       0.00027547       0.00000000
Si      -0.00169416       2.71684620      -2.71235227       0.00000000
Si       0.00081450      -2.71497285       2.71428056       0.00000000
Si      -2.71487348      -0.00045612       2.71438386       0.00000000
