10
Lattice="16.28999089631971 0.0 0.0 0.0 16.28999089631971 0.0 0.0 0.0 34.433804113860816" Properties=species:S:1:pos:R:3:initial_magmoms:R:1 pbc="T T T"
Si       1.24256862      -1.43060409      -1.35188224       0.00000000
Si       1.35812988       1.35014778       1.35961952       0.00000000
Si      -1.35550719      -1.36772469       1.36003272       0.00000000
Si      -1.46829915       1.25631738      -1.40917323       0.00000000
Si      -0.54535662      -2.23200693      -2.71563989       0.00000000
Si       2.41355898       0.11070684      -2.72322619       0.00000000
Si      -2.43094041      -0.44378847      -2.72851692       0.00000000
Si      -2.72383461       2.69140122      -0.00981708       0.00000000
Si       0.00472410       2.70089292       2.71500367       0.00000000
Si       2.70689301       2.71537324      -0.00572634       0.00000000
