10
Lattice="16.28999089631971 0.0 0.0 0.0 16.28999089631971 0.0 0.0 0.0 34.433804113860816" Properties=species:S:1:pos:R:3:initial_magmoms:R:1 pbc="T T T"
Si      -0.27864045       1.92425625      -1.36609307       0.00000000
Si      -1.64843397      -1.69416000      -0.31827183       0.00000000
Si      -0.12600315      -0.14318910       2.39036158       0.00000000
Si       2.23275627      -0.26727003      -0.87103800       0.00000000
Si       1.28886480      -0.93755466      -2.91406560       0.00000000
Si      -0.05639598       0.91588896      -3.48418642       0.00000000
Si      -3.20880420      -1.09791342       1.33957903       0.00000000
Si      -0.25228323      -3.62926539      -0.33545431       0.00000000
Si       3.28080600       1.81253943      -0.31517279       0.00000000
Si       1.56499659       3.34515706      -0.93267454       0.00000000
