10
Lattice="16.28999089631971 0.0 0.0 0.0 16.28999089631971 0.0 0.0 0.0 34.433804113860816" Properties=species:S:1:pos:R:3:initial_magmoms:R:1 pbc="T T T"
Si       1.61130906       1.18322578       1.23409618       0.00000000
Si      -1.14767937      -1.66396390       1.22979884       0.00000000
Si       1.19291670      -1.10687848      -1.82258541       0.00000000
Si      -1.50140043       1.94813902      -0.15344026       0.00000000
Si      -2.44889199      -0.24843491       2.58419130       0.00000000
Si      -0.87946452      -1.70670886      -3.02515226       0.00000000
Si       0.26756325       2.47785724       2.60311957       0.00000000
Si      -3.52406457       1.21258362       1.00244263       0.00000000
Si      -2.32639119       2.01052972      -2.39480669       0.00000000
Si       2.46889611       3.06209809      -0.19834196       0.00000000
