10
Lattice="16.28999089631971 0.0 0.0 0.0 16.28999089631971 0.0 0.0 0.0 34.433804113860816" Properties=species:S:1:pos:R:3:initial_magmoms:R:1 pbc="T T T"
Si       1.34374581      -1.29463146      -1.36902339       0.00000000
Si       1.36637262       1.33240797       1.34218223       0.00000000
Si      -1.35125550      -1.38049279       1.34583221       0.00000000
Si      -1.14098418       1.43933553      -1.53747710       0.00000000
Si      -1.76896368      -0.52971822      -2.75655983       0.00000000
Si      -0.26756325      -2.47785724      -2.60311957       0.00000000
Si       2.20133286       0.58424085      -2.80146153       0.00000000
Si      -2.68863192       2.68341912      -0.03653084       0.00000000
Si       0.00959481       2.69061930       2.70083760       0.00000000
Si      -2.70350469      -0.02322954       2.70317910       0.00000000
