10
Lattice="16.28999089631971 0.0 0.0 0.0 16.28999089631971 0.0 0.0 0.0 34.433804113860816" Properties=species:S:1:pos:R:3:initial_magmoms:R:1 pbc="T T T"
Si       1.35716877       1.35671065       1.35720915       0.00000000
Si      -1.35798327      -1.35802667       1.35617613       0.00000000
Si      -1.36218609       1.35715211      -1.35645160       0.00000000
Si       1.35650088      -1.35752168      -1.36302846       0.00000000
Si      -0.00040725       2.71371489       2.71383292       0.00000000
Si       2.71420722       2.71433391      -0.00027547       0.00000000
Si      -2.71443528       2.71441536       0.00089528       0.00000000
Si       2.71441899      -0.00119129       2.71479707       0.00000000
Si      -2.71523349      -0.00100133       2.71417726       0.00000000
Si      -0.00030951      -2.71692218       2.71366075       0.00000000
