10
Lattice="16.28999089631971 0.0 0.0 0.0 16.28999089631971 0.0 0.0 0.0 34.433804113860816" Properties=species:S:1:pos:R:3:initial_magmoms:R:1 pbc="T T T"
Si      -0.19346004       2.01885228       1.08865976       0.00000000
Si       1.03542498      -1.30092917       1.61759772       0.00000000
Si      -2.27721168      -0.66495780      -0.33421469       0.00000000
Si       2.57069232       1.70144163      -1.07536830       0.00000000
Si      -0.80798400      -1.11229586       3.05910087       0.00000000
Si      -1.85000643      -2.07174754      -2.21664294       0.00000000
Si       0.88690905      -3.55378472       0.60438247       0.00000000
Si      -2.71054197      -1.78534002       1.85832458       0.00000000
Si       2.96574111      -0.00480555       2.41315677       0.00000000
Si      -1.35997065       1.15375554       3.43659887       0.00000000
