10
Lattice="16.28999089631971 0.0 0.0 0.0 16.28999089631971 0.0 0.0 0.0 34.433804113860816" Properties=species:S:1:pos:R:3:initial_magmoms:R:1 pbc="T T T"
Si       0.55198665      -2.26605140      -0.37749801       0.00000000
Si       0.42049377      -0.05659146       2.34625186       0.00000000
Si       1.57778424       1.80884160      -0.28597290       0.00000000
Si      -2.37262221       0.38242404      -0.28938185       0.00000000
Si       1.16651061       0.86509674      -2.34793911       0.00000000
Si      -1.35057132      -2.93909556      -1.57827429       0.00000000
Si       0.12893535       3.67960149      -0.07348178       0.00000000
Si      -3.16576602      -1.88198370      -0.52938560       0.00000000
Si       1.35997065      -1.15375554      -3.43659887       0.00000000
Si       2.39539563      -2.45468471      -1.81900115       0.00000000
