10
Lattice="16.28999089631971 0.0 0.0 0.0 16.28999089631971 0.0 0.0 0.0 34.433804113860816" Properties=species:S:1:pos:R:3:initial_magmoms:R:1 pbc="T T T"
Si      -0.74479509       1.11653941      -1.94530442       0.00000000
Si       1.19843901      -1.86379007      -0.82458677       0.00000000
Si      -1.71315414      -1.08274973       1.23180116       0.00000000
Si       0.88150077       1.76997855       1.33072954       0.00000000
Si      -0.87628797       3.32599935       0.77844544       0.00000000
Si      -0.48480669      -1.24232657       3.28581316       0.00000000
Si      -0.16912278      -2.46678071      -2.66961989       0.00000000
Si       0.13181868       1.08108911       3.48439302       0.00000000
Si       1.09861389       0.92790609      -3.38680756       0.00000000
Si      -2.67768504      -2.73942644      -0.15271401       0.00000000
