10
Lattice="16.28999089631971 0.0 0.0 0.0 16.28999089631971 0.0 0.0 0.0 34.433804113860816" Properties=species:S:1:pos:R:3:initial_magmoms:R:1 pbc="T T T"
Si      -0.02731833       2.18512431       0.90667700       0.00000000
Si      -0.42049377       0.05659146      -2.34625186       0.00000000
Si       1.75778874      -1.55602080       0.55228409       0.00000000
Si      -1.98304686      -0.83942370       1.17526083       0.00000000
Si       1.15729047       1.86543306      -2.63222476       0.00000000
Si      -0.88107723      -0.86758911       3.26639248       0.00000000
Si      -0.67471551       1.47748671       3.09659930       0.00000000
Si       0.13149288      -2.20945994      -2.72374986       0.00000000
Si       0.87628797      -3.32599935      -0.77844544       0.00000000
Si       1.00810665      -2.24491024       2.70594757       0.00000000
