10
Lattice="16.28999089631971 0.0 0.0 0.0 16.28999089631971 0.0 0.0 0.0 34.433804113860816" Properties=species:S:1:pos:R:3:initial_magmoms:R:1 pbc="T T T"
Si       1.55292570      -0.28701025       1.72076145       0.00000000
Si       1.15916382       1.07054622      -1.76521552       0.00000000
Si      -1.97356445       0.88591536       0.99176298       0.00000000
Si      -0.45346473      -2.23361054      -0.76226155       0.00000000
Si      -2.63347724      -1.68655976      -1.49408360       0.00000000
Si       0.14775030      -1.17424836       3.35351006       0.00000000
Si       2.47132332      -0.75698164      -2.55364677       0.00000000
Si       1.70924454       1.82185731       2.69523866       0.00000000
Si       0.77185278      -2.32216298      -2.86692570       0.00000000
Si      -1.75129555       0.41086638       3.32992289       0.00000000
