10
Lattice="16.28999089631971 0.0 0.0 0.0 16.28999089631971 0.0 0.0 0.0 34.433804113860816" Properties=species:S:1:pos:R:3:initial_magmoms:R:1 pbc="T T T"
Si      -1.76003676      -0.97814934       1.18135561       0.00000000
Si      -0.72795123       1.59764175      -1.54563103       0.00000000
Si       1.16488161      -1.25413452      -1.74644909       0.00000000
Si      -1.01066418      -2.28929886      -0.84958572       0.00000000
Si       0.03841182      -0.63485388       2.74317054       0.00000000
Si       1.28176236       2.73924495      -0.75940354       0.00000000
Si      -0.38291274      -0.07977213      -3.19335834       0.00000000
Si       2.21073219       0.44452152       2.53092045       0.00000000
Si       3.26313135      -0.29439288      -1.25425202       0.00000000
Si      -3.51888435       0.65293578       1.62052459       0.00000000
