10
Lattice="16.28999089631971 0.0 0.0 0.0 16.28999089631971 0.0 0.0 0.0 34.433804113860816" Properties=species:S:1:pos:R:3:initial_magmoms:R:1 pbc="T T T"
Si       0.19346004      -2.01885228      -1.08865976       0.00000000
Si       0.41127363       0.94374486       2.06196621       0.00000000
Si      -0.83367333       1.76111190      -1.25218599       0.00000000
Si      -1.16651061      -0.86509674       2.34793911       0.00000000
Si       1.33864704       2.84048730      -1.46443607       0.00000000
Si       2.76415236      -0.31741065      -2.16402806       0.00000000
Si       1.22888502      -3.31978145       0.52893796       0.00000000
Si      -2.08375164      -2.68381008      -1.42287445       0.00000000
Si      -2.09091924       3.08542374       0.19289828       0.00000000
Si       3.06196614       2.14754328       0.12675090       0.00000000
