10
Lattice="16.28999089631971 0.0 0.0 0.0 16.28999089631971 0.0 0.0 0.0 34.433804113860816" Properties=species:S:1:pos:R:3:initial_magmoms:R:1 pbc="T T T"
Si      -0.75902115       2.20345056      -0.29943653       0.00000000
Si       1.97356445      -0.88591536      -0.99176298       0.00000000
Si      -1.83328542      -1.18950232      -0.97578569       0.00000000
Si       0.22226890      -0.47504898       2.33815991       0.00000000
Si      -1.90703025      -1.47219898       2.68914387       0.00000000
Si      -0.65991279      -2.57247512      -2.48584658       0.00000000
Si       1.66739390       1.37668419       2.93152355       0.00000000
Si       2.12131475      -2.06016372       2.36174708       0.00000000
Si       3.52649015      -1.17292561       0.72899847       0.00000000
Si      -0.83655666       3.23235954       1.78952580       0.00000000
