10
Lattice="16.28999089631971 0.0 0.0 0.0 16.28999089631971 0.0 0.0 0.0 34.433804113860816" Properties=species:S:1:pos:R:3:initial_magmoms:R:1 pbc="T T T"
Si      -1.80511119      -0.61196643      -1.43141404       0.00000000
Si       2.07508536      -1.11246039      -0.52811155       0.00000000
Si       0.53349750       2.18572704      -1.00663839       0.00000000
Si       0.20256615      -0.48294963       2.79554438       0.00000000
Si       2.35470321       2.35198278       0.74315078       0.00000000
Si       3.39589485       0.10997379       1.09072579       0.00000000
Si      -1.49462379       3.37276305      -0.51161775       0.00000000
Si       0.71299701       1.57244112      -3.33643088       0.00000000
Si      -2.01147291      -2.95704225      -1.26162085       0.00000000
Si      -1.15771401       0.09567117      -3.62133633       0.00000000
