10
Lattice="16.28999089631971 0.0 0.0 0.0 16.28999089631971 0.0 0.0 0.0 34.433804113860816" Properties=species:S:1:pos:R:3:initial_magmoms:R:1 pbc="T T T"
Si       1.40517540       0.88723811      -1.63274860       0.00000000
Si      -1.45745001      -1.55221613      -1.05749715       0.00000000
Si       0.81542853      -0.10788867       2.27862383       0.00000000
Si      -1.89904585       1.58511474      -0.02358717       0.00000000
Si      -0.39806244       2.02033467       2.65073780       0.00000000
Si       1.56149424       2.99610567      -0.65827140       0.00000000
Si      -0.45392085       3.43684791       0.56977648       0.00000000
Si      -0.14775030       1.17424836      -3.35351006       0.00000000
Si      -2.21608020      -2.74456268       1.00150775       0.00000000
Si      -2.12131475       2.06016372      -2.36174708       0.00000000
