10
Lattice="16.28999089631971 0.0 0.0 0.0 16.28999089631971 0.0 0.0 0.0 34.433804113860816" Properties=species:S:1:pos:R:3:initial_magmoms:R:1 pbc="T T T"
Si      -1.31848002      -1.36101321       1.33737527       0.00000000
Si       1.29564144      -1.40784696      -1.35163087       0.00000000
Si      -1.42682481       1.29446856      -1.35352473       0.00000000
Si       0.88617600       1.84692762       1.27794249       0.00000000
Si      -1.66351851       0.31640067       2.98510258       0.00000000
Si       0.22931433      -2.53537560       2.78428452       0.00000000
Si       2.64608244      -0.04434138      -2.70866785       0.00000000
Si      -0.07169229       2.67113646      -2.70501786       0.00000000
Si      -2.75462271       2.65831623       0.02830460       0.00000000
Si       2.50108515      -2.92060152       0.01763012       0.00000000
