10
Lattice="16.28999089631971 0.0 0.0 0.0 16.28999089631971 0.0 0.0 0.0 34.433804113860816" Properties=species:S:1:pos:R:3:initial_magmoms:R:1 pbc="T T T"
Si      -0.02414178       1.63906722      -1.72014165       0.00000000
Si      -2.37772098      -0.03955212       0.18046767       0.00000000
Si       0.71921979       0.69307434       2.18017753       0.00000000
Si       0.74754810      -2.28975498      -0.28852101       0.00000000
Si      -0.18142173       0.00496845      -3.57884500       0.00000000
Si      -2.68201818      -2.04481854       1.36881335       0.00000000
Si      -1.42477227      -3.36913038      -0.07627092       0.00000000
Si      -0.98562645       2.13838830       2.82219616       0.00000000
Si      -2.99680614       1.49234319       1.81283750       0.00000000
Si       2.03414859       2.80280853      -1.68474368       0.00000000
