10
Lattice="16.28999089631971 0.0 0.0 0.0 16.28999089631971 0.0 0.0 0.0 34.433804113860816" Properties=species:S:1:pos:R:3:initial_magmoms:R:1 pbc="T T T"
Si       0.28952217       1.92279015      -1.35927518       0.00000000
Si      -2.26794267      -0.62152866      -0.54753223       0.00000000
Si       2.11670631      -1.22051196      -0.82017924       0.00000000
Si      -1.51933572      -0.73129068       1.95880248       0.00000000
Si      -2.19123306      -2.74898637       0.54828977       0.00000000
Si       1.55540178      -0.85509468      -3.12748644       0.00000000
Si       0.13007565       1.07790930      -3.54138100       0.00000000
Si      -2.13961005      -1.43052264      -2.73277152       0.00000000
Si       2.61764010       2.33753355      -1.37094824       0.00000000
Si       3.79886058       0.47133486      -0.36696126       0.00000000
