10
Lattice="16.28999089631971 0.0 0.0 0.0 16.28999089631971 0.0 0.0 0.0 34.433804113860816" Properties=species:S:1:pos:R:3:initial_magmoms:R:1 pbc="T T T"
Si      -2.03585904      -0.66194415      -1.03184395       0.00000000
Si      -0.07670961       2.12745771      -1.09582199       0.00000000
Si       2.02812129      -1.18703601      -0.49502064       0.00000000
Si       0.67189734       2.01769569       1.41051271       0.00000000
Si       0.05162301       1.31846373      -3.28106129       0.00000000
Si       2.19123306       2.74898637      -0.54828977       0.00000000
Si       1.49462379      -3.37276305       0.51161775       0.00000000
Si      -2.33543214      -2.89211031      -0.35470281       0.00000000
Si      -3.66951798       0.85763592      -0.26321215       0.00000000
Si      -1.78660575      -0.10937106      -3.35251148       0.00000000
