10
Lattice="16.28999089631971 0.0 0.0 0.0 16.28999089631971 0.0 0.0 0.0 34.433804113860816" Properties=species:S:1:pos:R:3:initial_magmoms:R:1 pbc="T T T"
Si       1.35798327       1.35802667      -1.35617613       0.00000000
Si      -1.35744570      -1.35772263      -1.35703698       0.00000000
Si      -1.35725022       1.35702534       1.35800113       0.00000000
Si       1.35767376      -1.35889551       1.35748462       0.00000000
Si      -0.00058644      -2.71381626       2.71249000       0.00000000
Si      -0.00420282       2.71517877      -2.71262774       0.00000000
Si      -2.71432125       2.71408734      -0.00034434       0.00000000
Si      -0.00001629       2.71327936       2.71658763       0.00000000
Si       2.71515204       2.71473732       0.00103301       0.00000000
Si      -2.71816569       0.00415395      -2.71204236       0.00000000
