10
Lattice="16.28999089631971 0.0 0.0 0.0 16.28999089631971 0.0 0.0 0.0 34.433804113860816" Properties=species:S:1:pos:R:3:initial_magmoms:R:1 pbc="T T T"
Si      -1.34978940       1.34540739       1.35779452       0.00000000
Si       1.35826020       1.35492075      -1.35500538       0.00000000
Si      -1.35599589      -1.35940050      -1.35452331       0.00000000
Si       1.35609363      -1.35883035       1.36536996       0.00000000
Si       0.00058644       2.71381626      -2.71249000       0.00000000
Si      -2.71476108      -0.00197109      -2.71187019       0.00000000
Si       2.71590138       2.71164969       0.00278914       0.00000000
Si       2.71593396      -0.00201996      -2.71187019       0.00000000
Si      -2.71536381       2.71311579       0.00554385       0.00000000
Si      -2.71285515      -2.71616202       0.00368442       0.00000000
