10
Lattice="16.28999089631971 0.0 0.0 0.0 16.28999089631971 0.0 0.0 0.0 34.433804113860816" Properties=species:S:1:pos:R:3:initial_magmoms:R:1 pbc="T T T"
Si       0.15944652       0.84488085       2.18210582       0.00000000
Si      -2.11305735      -0.76268151      -0.71763531       0.00000000
Si       0.11764638       1.81108962      -1.52975704       0.00000000
Si       1.42532613      -1.93300398       0.41389456       0.00000000
Si      -2.26968570      -2.50843194       0.80860947       0.00000000
Si       2.48756445       1.25962425       2.17043275       0.00000000
Si      -1.60559127      -1.09879308      -2.97463470       0.00000000
Si      -0.26546184      -3.55736133       0.17595684       0.00000000
Si      -0.13007565      -1.07790930       3.54138100       0.00000000
Si       2.36457495       2.03449068      -2.08558781       0.00000000
