10
Lattice="16.28999089631971 0.0 0.0 0.0 16.28999089631971 0.0 0.0 0.0 34.433804113860816" Properties=species:S:1:pos:R:3:initial_magmoms:R:1 pbc="T T T"
Si      -1.35625653      -1.35510495      -1.35665821       0.00000000
Si      -1.34993601       1.35739031       1.36168554       0.00000000
Si       1.35927647      -1.35488552       1.35772565       0.00000000
Si       1.35905437       1.35967091      -1.35672707       0.00000000
Si       2.70055035      -0.00250214       2.72030648       0.00000000
Si       0.00146610      -2.71259192      -2.71455603       0.00000000
Si      -2.71334385      -2.71410689       0.00000000       0.00000000
Si       2.71733231      -2.71021358       0.00127405       0.00000000
Si      -2.71350675       0.00279699      -2.71424613       0.00000000
Si      -2.70842427      -0.02186281       2.72044421       0.00000000
