10
Lattice="16.28999089631971 0.0 0.0 0.0 16.28999089631971 0.0 0.0 0.0 34.433804113860816" Properties=species:S:1:pos:R:3:initial_magmoms:R:1 pbc="T T T"
Si      -1.35803030       1.35622395      -1.35751905       0.00000000
Si       1.35896807       1.35602847       1.35789782       0.00000000
Si      -1.35623840      -1.35909099       1.35779452       0.00000000
Si       1.35951216      -1.36016613      -1.36368271       0.00000000
Si      -2.71254380       2.71125873      -0.00010330       0.00000000
Si       0.00161655       2.71373481       2.71462490       0.00000000
Si      -2.71374926      -0.00146610       2.71479707       0.00000000
Si       2.71602444       2.71357191       0.00110188       0.00000000
Si      -2.71422167      -2.71578735       0.00065424       0.00000000
Si       2.71604073      -0.00133578       2.71548574       0.00000000
