10
Lattice="16.28999089631971 0.0 0.0 0.0 16.28999089631971 0.0 0.0 0.0 34.433804113860816" Properties=species:S:1:pos:R:3:initial_magmoms:R:1 pbc="T T T"
Si       1.37013561      -1.95570247       0.13319003       0.00000000
Si       0.61188498       1.86818607      -1.37552794       0.00000000
Si       0.99336420       1.08914940       1.93039457       0.00000000
Si      -1.93031613      -1.29612362      -0.79555905       0.00000000
Si       2.95511744       1.40110290      -1.11882379       0.00000000
Si       3.26818681       0.70455879       1.16031655       0.00000000
Si      -2.96574111       0.00480555      -2.41315677       0.00000000
Si       2.43605288      -2.29228645      -1.94034595       0.00000000
Si      -0.39504879       1.70624718      -3.48852508       0.00000000
Si       3.29431108      -1.60144709       1.42363199       0.00000000
