10
Lattice="16.28999089631971 0.0 0.0 0.0 16.28999089631971 0.0 0.0 0.0 34.433804113860816" Properties=species:S:1:pos:R:3:initial_magmoms:R:1 pbc="T T T"
Si      -1.35707266       1.35736425      -1.35758792       0.00000000
Si       1.35824391       1.35764118       1.35662377       0.00000000
Si       1.35799956      -1.35783666      -1.35758792       0.00000000
Si      -1.35966277      -1.35783666       1.35720915       0.00000000
Si      -2.71299396       0.00081450       2.71028624       0.00000000
Si       2.71265967      -0.00146610       2.71579565       0.00000000
Si      -0.00001629       2.71490769      -2.71438386       0.00000000
Si      -2.71442418       2.71507059      -0.00086085       0.00000000
Si       2.71448415      -2.71542897      -0.00079198       0.00000000
Si      -2.71473972      -2.71520091       0.00017217       0.00000000
