10
Lattice="16.28999089631971 0.0 0.0 0.0 16.28999089631971 0.0 0.0 0.0 34.433804113860816" Properties=species:S:1:pos:R:3:initial_magmoms:R:1 pbc="T T T"
Si       1.46578790      -1.26545607      -1.32225882       0.00000000
Si      -1.25118603       1.47025395      -1.33307104       0.00000000
Si       1.74539924       1.06248267       1.16744435       0.00000000
Si      -1.41138189      -1.42618950       1.42907254       0.00000000
Si       0.68434520       2.20279896       2.85838611       0.00000000
Si      -2.60242524       0.11484450      -2.68814529       0.00000000
Si       0.11375177      -2.59939530      -2.69368913       0.00000000
Si      -2.49324966       2.87521758       0.08987228       0.00000000
Si       2.88097514      -2.53560366       0.18590821       0.00000000
Si      -2.74742253      -2.76141564       0.03815268       0.00000000
