10
Lattice="16.28999089631971 0.0 0.0 0.0 16.28999089631971 0.0 0.0 0.0 34.433804113860816" Properties=species:S:1:pos:R:3:initial_magmoms:R:1 pbc="T T T"
Si      -1.34268696      -1.34961021       1.37807260       0.00000000
Si       1.37734135       1.36632375       1.37586884       0.00000000
Si       1.32189019      -1.38049605      -1.45395786       0.00000000
Si      -1.33485147       1.43083215      -1.46894346       0.00000000
Si       2.25092681       0.56132082      -2.43772531       0.00000000
Si       0.56066989       2.32301916      -2.68648702       0.00000000
Si      -2.68727985      -2.69246007      -0.01167307       0.00000000
Si      -2.69720046       0.00542457       2.73548835       0.00000000
Si      -2.69208540       2.74100427      -0.00044764       0.00000000
Si       2.73144923      -2.70330921      -0.00078853       0.00000000
