10
Lattice="16.28999089631971 0.0 0.0 0.0 16.28999089631971 0.0 0.0 0.0 34.433804113860816" Properties=species:S:1:pos:R:3:initial_magmoms:R:1 pbc="T T T"
Si       1.35168786      -1.35527913      -1.36127234       0.00000000
Si      -1.36879983      -1.35697329       1.35290492       0.00000000
Si      -1.36303317       1.36200690      -1.35992942       0.00000000
Si       1.36826130       1.35426915       1.36623081       0.00000000
Si      -0.06934653       2.53873134       2.76978788       0.00000000
Si      -2.61086346       0.04799034       2.77584824       0.00000000
Si       2.70919709      -2.71096551      -0.00103301       0.00000000
Si       2.71137995       2.71249677      -0.00196273       0.00000000
Si       2.70944144       0.00229689      -2.71834375       0.00000000
Si      -0.00529225      -2.71236645      -2.71886026       0.00000000
