10
Lattice="16.28999089631971 0.0 0.0 0.0 16.28999089631971 0.0 0.0 0.0 34.433804113860816" Properties=species:S:1:pos:R:3:initial_magmoms:R:1 pbc="T T T"
Si      -1.81524357       1.44862083      -0.21286990       0.00000000
Si       0.00866628      -1.70176743      -1.62296940       0.00000000
Si       0.31692195      -0.89057430       2.18441289       0.00000000
Si       2.03280534       1.31191515      -0.15949747       0.00000000
Si       2.22921875       0.47408787       2.03197435       0.00000000
Si       1.55584391      -0.76361004      -3.04043773       0.00000000
Si       3.24339506      -0.23693805      -1.46068279       0.00000000
Si       0.76476663      -3.53752011      -0.33001376       0.00000000
Si      -1.43762508       2.97916407       1.59604215       0.00000000
Si       1.38333281       3.44269602      -0.95646831       0.00000000
