10
Lattice="16.28999089631971 0.0 0.0 0.0 16.28999089631971 0.0 0.0 0.0 34.433804113860816" Properties=species:S:1:pos:R:3:initial_magmoms:R:1 pbc="T T T"
Si       1.35599589      -1.35951453      -1.35669264       0.00000000
Si       1.35607734       1.35848826       1.35806999       0.00000000
Si      -1.35870003      -1.35669636       1.35796669       0.00000000
Si      -1.35956340       1.35964485      -1.36185771       0.00000000
Si       2.69028049       0.01278765      -2.73075370       0.00000000
Si       2.71441695      -2.71349046       0.00075754       0.00000000
Si       2.71386880       2.71491444       0.00096415       0.00000000
Si       2.71389331       0.00039096       2.71552018       0.00000000
Si      -0.00097740      -2.71432125       2.71562348       0.00000000
Si      -2.71661814      -2.71404432       0.00058537       0.00000000
