10
Lattice="16.28999089631971 0.0 0.0 0.0 16.28999089631971 0.0 0.0 0.0 34.433804113860816" Properties=species:S:1:pos:R:3:initial_magmoms:R:1 pbc="T T T"
Si       1.35779146       1.35642618      -1.35710585       0.00000000
Si      -1.35607734      -1.35848826      -1.35806999       0.00000000
Si      -1.35772263       1.35748697       1.35789782       0.00000000
Si       1.35781597      -1.35809730       1.35745018       0.00000000
Si      -0.00146610       2.71259192       2.71455603       0.00000000
Si       0.00016290      -2.71308321       2.71572678       0.00000000
Si      -2.71480995      -0.00151497       2.71455603       0.00000000
Si       2.71549154       2.71428445      -0.00041321       0.00000000
Si      -2.71477737      -2.71518462      -0.00010330       0.00000000
Si      -2.71497285       2.71538892       0.00030990       0.00000000
