10
Lattice="16.28999089631971 0.0 0.0 0.0 16.28999089631971 0.0 0.0 0.0 34.433804113860816" Properties=species:S:1:pos:R:3:initial_magmoms:R:1 pbc="T T T"
Si       2.00235118      -0.26494056      -1.29020093       0.00000000
Si      -1.18122048       1.86619869      -1.00398699       0.00000000
Si      -1.68215427      -1.69184682      -0.45321798       0.00000000
Si       0.81557581      -0.61216191       2.29129547       0.00000000
Si       2.70637892      -2.36240838      -0.51158331       0.00000000
Si       1.10815887       0.10404423      -3.45781011       0.00000000
Si       1.78688824      -2.82893769       1.59084264       0.00000000
Si      -2.24345880      -1.32642954      -2.76052518       0.00000000
Si      -0.18070497       2.07267444      -3.21205591       0.00000000
Si       1.82609501       1.65340242       2.93517354       0.00000000
