10
Lattice="16.28999089631971 0.0 0.0 0.0 16.28999089631971 0.0 0.0 0.0 34.433804113860816" Properties=species:S:1:pos:R:3:initial_magmoms:R:1 pbc="T T T"
Si       1.47654189       1.11808044       1.55721943       0.00000000
Si      -1.13982759      -1.47066120       1.68285812       0.00000000
Si      -1.57719780       1.70323353      -1.26024350       0.00000000
Si       3.04417113       2.20809321       0.11456133       0.00000000
Si      -2.08365390      -3.30124995       0.40177385       0.00000000
Si      -2.77011450       2.81011201       0.56234191       0.00000000
Si      -2.49699636      -0.16669557       3.14164360       0.00000000
Si       0.23060124       2.54995515       3.12250184       0.00000000
Si       3.20953792      -2.08000494      -1.81428372       0.00000000
Si       0.22937949      -2.86270686       3.13077629       0.00000000
