10
Lattice="16.28999089631971 0.0 0.0 0.0 16.28999089631971 0.0 0.0 0.0 34.433804113860816" Properties=species:S:1:pos:R:3:initial_magmoms:R:1 pbc="T T T"
Si       1.34936749       1.36231641      -1.32638743       0.00000000
Si       1.35402643      -1.35858600       1.36082470       0.00000000
Si      -1.35994566       1.35705474       1.36023932       0.00000000
Si      -1.37734135      -1.36632375      -1.37586884       0.00000000
Si      -0.01506499       2.67094098      -2.66557736       0.00000000
Si       2.70515161       0.10725336      -2.70513149       0.00000000
Si       2.70712270      -2.71114470       0.00165282       0.00000000
Si       2.70977797       2.71596654       0.00519951       0.00000000
Si       2.71147213      -0.00087966       2.71755177       0.00000000
Si      -2.71836673       2.71103067       0.00278914       0.00000000
