10
Lattice="16.28999089631971 0.0 0.0 0.0 16.28999089631971 0.0 0.0 0.0 34.433804113860816" Properties=species:S:1:pos:R:3:initial_magmoms:R:1 pbc="T T T"
Si      -1.35567209      -1.35783666       1.35748462       0.00000000
Si       1.35698011       1.35708732       1.35758792       0.00000000
Si       1.35735152      -1.35770634      -1.35672707       0.00000000
Si      -1.35803414       1.35739683      -1.35679594       0.00000000
Si       0.00143022      -2.71425609       2.71114708       0.00000000
Si       2.71440789      -0.00016290      -2.71352302       0.00000000
Si      -0.00161655      -2.71373481      -2.71462490       0.00000000
Si      -2.71416035      -0.00247608      -2.71472820       0.00000000
Si       2.71473369       2.71466334       0.00051651       0.00000000
Si       2.71442418      -2.71507059       0.00086085       0.00000000
