10
Lattice="16.28999089631971 0.0 0.0 0.0 16.28999089631971 0.0 0.0 0.0 34.433804113860816" Properties=species:S:1:pos:R:3:initial_magmoms:R:1 pbc="T T T"
Si      -1.35168786       1.35527913       1.36127234       0.00000000
Si      -1.35698011      -1.35708732      -1.35758792       0.00000000
Si       1.35775358       1.35757602      -1.35707141       0.00000000
Si       1.35750923      -1.35568638       1.36023932       0.00000000
Si      -2.71265220      -2.71492398      -0.00010330       0.00000000
Si       0.00037141      -2.71479366      -2.71431499       0.00000000
Si       2.71487348       0.00045612      -2.71438386       0.00000000
Si       0.00043657       2.71515204      -2.71410839       0.00000000
Si      -2.71501425       0.00030951      -2.71438386       0.00000000
Si       2.71568798      -2.71451673      -0.00010330       0.00000000
