10
Lattice="16.28999089631971 0.0 0.0 0.0 16.28999089631971 0.0 0.0 0.0 34.433804113860816" Properties=species:S:1:pos:R:3:initial_magmoms:R:1 pbc="T T T"
Si      -1.54717763      -0.93815739       1.41746834       0.00000000
Si       1.06105404      -1.14031629      -1.69094176       0.00000000
Si       1.68755115       0.52667199       1.57975495       0.00000000
Si      -1.63178789       1.65696993      -1.19561121       0.00000000
Si      -1.55584391       0.76361004       3.04043773       0.00000000
Si       0.47696143       2.07552519       2.88094027       0.00000000
Si       2.27350245       0.68481531      -2.76073179       0.00000000
Si      -0.68434520      -2.20279896      -2.85838611       0.00000000
Si      -3.45462260      -1.33924977       0.08277891       0.00000000
Si       1.93963890      -1.39975083       2.96853991       0.00000000
