10
Lattice="16.28999089631971 0.0 0.0 0.0 16.28999089631971 0.0 0.0 0.0 34.433804113860816" Properties=species:S:1:pos:R:3:initial_magmoms:R:1 pbc="T T T"
Si      -1.06105404       1.14031629       1.69094176       0.00000000
Si      -1.74539924      -1.06248267      -1.16744435       0.00000000
Si       1.21244841       1.82513160      -1.06979002       0.00000000
Si       1.88410140      -1.56449160       0.18415209       0.00000000
Si      -0.27961133      -2.32793874      -2.48970316       0.00000000
Si       2.44947843       0.41345649      -2.49662436       0.00000000
Si       0.62649711       1.66698828       3.27069671       0.00000000
Si       3.13673724      -0.48899322       2.05642236       0.00000000
Si       1.13557590      -3.59808633      -0.98153613       0.00000000
Si      -2.69284193       2.79728622       0.49533055       0.00000000
