10
Lattice="16.28999089631971 0.0 0.0 0.0 16.28999089631971 0.0 0.0 0.0 34.433804113860816" Properties=species:S:1:pos:R:3:initial_magmoms:R:1 pbc="T T T"
Si       2.28563361       0.21541896      -0.46716368       0.00000000
Si      -1.21058972       1.54885320       1.30118532       0.00000000
Si      -1.68755115      -0.52667199      -1.57975495       0.00000000
Si       0.25208775      -1.92642282       1.38878496       0.00000000
Si       0.91365723      -0.49203945       3.14838777       0.00000000
Si       2.51024013      -2.15598150      -1.21427435       0.00000000
Si      -3.23472878      -1.46482938      -0.16228661       0.00000000
Si      -3.24339506       0.23693805       1.46068279       0.00000000
Si      -1.01417630       0.71102592       3.49265714       0.00000000
Si       2.33222301       1.01752227      -2.70598201       0.00000000
