10
Lattice="16.28999089631971 0.0 0.0 0.0 16.28999089631971 0.0 0.0 0.0 34.433804113860816" Properties=species:S:1:pos:R:3:initial_magmoms:R:1 pbc="T T T"
Si       1.36901714      -1.41239187      -1.29430544       0.00000000
Si      -1.33428460      -1.37230218       1.37406106       0.00000000
Si       1.38251503       1.34863281       1.37368229       0.00000000
Si      -1.43818222       1.27213497      -1.57860141       0.00000000
Si      -2.68412287       2.70400968      -0.01331900       0.00000000
Si      -2.68534462      -2.70865233      -0.00504456       0.00000000
Si       2.72553268       2.69175960       0.00662162       0.00000000
Si      -2.69028049      -0.01278765       2.73075370       0.00000000
Si       0.12944702       2.36214774      -3.02125951       0.00000000
Si       0.02358831       2.70212679       2.73171785       0.00000000
