10
Lattice="16.28999089631971 0.0 0.0 0.0 16.28999089631971 0.0 0.0 0.0 34.433804113860816" Properties=species:S:1:pos:R:3:initial_magmoms:R:1 pbc="T T T"
Si       1.35601381       1.35498591      -1.35645160       0.00000000
Si      -1.35698088      -1.35676152      -1.35758792       0.00000000
Si      -1.35750453       1.35711990       1.35717471       0.00000000
Si       1.35731701      -1.35757602       1.35703698       0.00000000
Si       2.71274275       0.00215028      -2.71262774       0.00000000
Si       2.71443691      -2.71469592      -0.00027547       0.00000000
Si      -0.00043657      -2.71515204       2.71410839       0.00000000
Si       2.71446949       2.71510317      -0.00044764       0.00000000
Si      -2.71545082      -2.71484253      -0.00027547       0.00000000
Si      -2.71540195      -0.00278559      -2.71503810       0.00000000
