10
Lattice="16.28999089631971 0.0 0.0 0.0 16.28999089631971 0.0 0.0 0.0 34.433804113860816" Properties=species:S:1:pos:R:3:initial_magmoms:R:1 pbc="T T T"
Si      -1.35879940       1.35742941      -1.36299403       0.00000000
Si       1.36057338      -1.35868700      -1.36485346       0.00000000
Si      -1.37238037      -1.36210790       1.35700254       0.00000000
Si       1.37425698       1.37018448       1.38131282       0.00000000
Si      -2.64251298       0.12500946       2.74279177       0.00000000
Si       2.70848943      -2.70590651      -0.01067449       0.00000000
Si       2.71352304       2.71379997      -0.00440753       0.00000000
Si      -2.71365426      -2.71449128      -0.00557828       0.00000000
Si      -2.71213059       2.71608057      -0.00991694       0.00000000
Si      -2.71387635       0.00006516      -2.72003101       0.00000000
