10
Lattice="16.28999089631971 0.0 0.0 0.0 16.28999089631971 0.0 0.0 0.0 34.433804113860816" Properties=species:S:1:pos:R:3:initial_magmoms:R:1 pbc="T T T"
Si      -0.88716969      -1.92749796       0.98663234       0.00000000
Si       1.45754775      -0.64088118      -1.72785482       0.00000000
Si       0.96011631       1.37185357       1.68543235       0.00000000
Si      -1.84299521       1.42052125      -0.59308817       0.00000000
Si       2.45421882       1.54756044      -1.48533740       0.00000000
Si      -0.98473702       2.11136060       2.77088977       0.00000000
Si      -2.90891249       1.75710523       1.48044780       0.00000000
Si      -0.76853939      -3.59500752      -0.59305374       0.00000000
Si       2.49724071       2.83080519       0.54780770       0.00000000
Si       0.70669278       2.76721555      -2.54569256       0.00000000
