10
Lattice="16.28999089631971 0.0 0.0 0.0 16.28999089631971 0.0 0.0 0.0 34.433804113860816" Properties=species:S:1:pos:R:3:initial_magmoms:R:1 pbc="T T T"
Si      -1.82375510       0.01198944       1.46488371       0.00000000
Si       0.38405304      -2.32886727       0.18415209       0.00000000
Si       2.19120048       0.94141539       0.17189365       0.00000000
Si      -1.26068310       0.77312340      -1.90877013       0.00000000
Si       3.13647660       0.05227461      -1.82671433       0.00000000
Si       1.73436372       3.15799569       0.63592385       0.00000000
Si      -0.92956279      -0.35699535       3.63249289       0.00000000
Si      -1.14205280      -0.89438616      -3.48845621       0.00000000
Si      -3.32223866      -1.70976582       0.66343647       0.00000000
Si      -1.62663632      -3.35617983       0.78464353       0.00000000
