10
Lattice="16.28999089631971 0.0 0.0 0.0 16.28999089631971 0.0 0.0 0.0 34.433804113860816" Properties=species:S:1:pos:R:3:initial_magmoms:R:1 pbc="T T T"
Si      -2.18000762       0.54703449      -0.73185648       0.00000000
Si       0.45348102       2.23360076       0.76219268       0.00000000
Si       1.22530122      -0.08856873      -2.10469859       0.00000000
Si       0.34531542      -2.00090070       1.43296356       0.00000000
Si      -0.85630014      -0.49275621       3.05817115       0.00000000
Si       2.92503240       1.47641061      -1.79159183       0.00000000
Si       2.00640672       1.94664427       2.48305744       0.00000000
Si      -1.86725591       1.56568470      -2.86534174       0.00000000
Si       1.61262855       3.30414047      -1.00302284       0.00000000
Si       2.92143231      -2.05998453       1.36237422       0.00000000
