10
Lattice="16.28999089631971 0.0 0.0 0.0 16.28999089631971 0.0 0.0 0.0 34.433804113860816" Properties=species:S:1:pos:R:3:initial_magmoms:R:1 pbc="T T T"
Si       1.35602847      -1.34801379       1.36020489       0.00000000
Si      -1.32952464      -1.35827649      -1.37897821       0.00000000
Si      -1.35778779       1.36818081       1.35707141       0.00000000
Si       1.37085237       1.35866745      -1.37943274       0.00000000
Si      -2.61635319       0.04328253      -2.72158397       0.00000000
Si      -0.10526598       2.65313601      -2.69616493       0.00000000
Si       2.70829395      -2.70528030       0.00285801       0.00000000
Si      -0.00184077      -2.70636847       2.71514141       0.00000000
Si      -2.71440270      -2.71021617      -0.00316791       0.00000000
Si       2.71327869       0.00799839       2.71613999       0.00000000
