10
Lattice="16.28999089631971 0.0 0.0 0.0 16.28999089631971 0.0 0.0 0.0 34.433804113860816" Properties=species:S:1:pos:R:3:initial_magmoms:R:1 pbc="T T T"
Si       1.30114746      -1.41544089      -1.35440968       0.00000000
Si       1.36516716       1.34583533       1.36474327       0.00000000
Si      -1.34879571      -1.36520253       1.36532864       0.00000000
Si      -1.07527032       1.46113432      -1.58180376       0.00000000
Si      -1.49286447      -0.41077143      -3.16424941       0.00000000
Si       2.44881054       0.24846274      -2.58415445       0.00000000
Si       0.94752414       2.19662945      -2.73761434       0.00000000
Si      -0.29339919      -2.60465976      -2.71745922       0.00000000
Si      -2.67265143       2.69283914      -0.01709295       0.00000000
Si      -2.70692559      -2.71536660       0.00570913       0.00000000
