10
Lattice="16.28999089631971 0.0 0.0 0.0 16.28999089631971 0.0 0.0 0.0 34.433804113860816" Properties=species:S:1:pos:R:3:initial_magmoms:R:1 pbc="T T T"
Si       1.75663215      -1.54589235      -0.16276868       0.00000000
Si      -1.14057693      -0.23205594       2.06554733       0.00000000
Si      -1.37909511      -0.65880411      -1.88704239       0.00000000
Si       0.50298633       2.40906620      -0.48393295       0.00000000
Si      -2.88852651       0.99103636       1.00822235       0.00000000
Si      -1.87154181       2.74328813      -0.23549292       0.00000000
Si      -3.36528594      -0.87503757      -0.41196626       0.00000000
Si       3.60031806      -0.12924323       0.26510601       0.00000000
Si      -2.13868152      -2.41763541       1.81979313       0.00000000
Si       1.75373253       3.21933080       1.54552773       0.00000000
