10
Lattice="16.28999089631971 0.0 0.0 0.0 16.28999089631971 0.0 0.0 0.0 34.433804113860816" Properties=species:S:1:pos:R:3:initial_magmoms:R:1 pbc="T T T"
Si      -0.04186530      -1.28467990      -2.03090690       0.00000000
Si      -0.36921285       2.36637337       0.20694728       0.00000000
Si      -1.53702666      -1.45838669       1.13734919       0.00000000
Si       2.02222431       0.15849193       1.29371318       0.00000000
Si      -1.78981488      -0.06158760      -3.08823188       0.00000000
Si      -1.26609138       2.29153711       2.47944188       0.00000000
Si       1.82579949       3.07866991      -0.49770648       0.00000000
Si       1.31043276      -0.80822998       3.29659095       0.00000000
Si      -2.49707781      -2.83087687      -0.54784213       0.00000000
Si      -0.38929842      -2.37320932       2.98348419       0.00000000
