10
Lattice="16.28999089631971 0.0 0.0 0.0 16.28999089631971 0.0 0.0 0.0 34.433804113860816" Properties=species:S:1:pos:R:3:initial_magmoms:R:1 pbc="T T T"
Si       1.82682576      -1.37342197      -0.34743728       0.00000000
Si       0.68049846       2.19608259       0.37481217       0.00000000
Si      -1.63457118       0.24308264      -1.67296731       0.00000000
Si      -0.98300376      -0.92800450       1.95973219       0.00000000
Si       0.86257179      -3.02991949      -1.73081613       0.00000000
Si      -2.94697503       2.07081249      -0.88439832       0.00000000
Si      -2.55319686       0.71331629       2.60168196       0.00000000
Si       1.78248438       2.16788460       2.46594383       0.00000000
Si      -1.29855735       3.52099716       0.04844839       0.00000000
Si       3.05507547      -1.53283591       1.70691906       0.00000000
