10
Lattice="16.28999089631971 0.0 0.0 0.0 16.28999089631971 0.0 0.0 0.0 34.433804113860816" Properties=species:S:1:pos:R:3:initial_magmoms:R:1 pbc="T T T"
Si      -0.68049846      -2.19608259      -0.37481217       0.00000000
Si       1.10198592      -0.02819799       2.09113166       0.00000000
Si      -1.97905581       1.32491457      -0.32636378       0.00000000
Si       1.98306315       0.83939112      -1.17501979       0.00000000
Si       1.30829877       2.31691041       1.92126961       0.00000000
Si       1.95572853       3.02454801      -0.26858382       0.00000000
Si       2.99118609      -1.40544418       1.53061788       0.00000000
Si      -2.31506964      -1.95299996      -2.04777948       0.00000000
Si       1.14632730      -3.56950457      -0.72224944       0.00000000
Si      -1.50135156       2.84377788      -2.05883273       0.00000000
