10
Lattice="16.28999089631971 0.0 0.0 0.0 16.28999089631971 0.0 0.0 0.0 34.433804113860816" Properties=species:S:1:pos:R:3:initial_magmoms:R:1 pbc="T T T"
Si       1.35870003       1.35601218      -1.35703698       0.00000000
Si      -1.35927018       1.35482301       1.35927518       0.00000000
Si      -1.35739683      -1.35902583      -1.35731245       0.00000000
Si       1.36192545      -1.35770634       1.36223649       0.00000000
Si      -2.71358820       2.71410948       0.00003443       0.00000000
Si       0.00115659       2.71375110      -2.71410839       0.00000000
Si      -2.71389771      -0.00143352      -2.71410839       0.00000000
Si      -2.71225242      -2.71757762      -0.00117075       0.00000000
Si       2.71655298       2.71340901       0.00006887       0.00000000
Si       2.71643895      -0.00195480      -2.71424613       0.00000000
