10
Lattice="16.28999089631971 0.0 0.0 0.0 16.28999089631971 0.0 0.0 0.0 34.433804113860816" Properties=species:S:1:pos:R:3:initial_magmoms:R:1 pbc="T T T"
Si       1.35650088       1.35762489      -1.35645160       0.00000000
Si      -1.35830907      -1.35770634      -1.35655490       0.00000000
Si       1.35431802      -1.35928647       1.35924074       0.00000000
Si      -1.35850455       1.35889551       1.36058366       0.00000000
Si       2.71358820      -2.71410948      -0.00003443       0.00000000
Si       2.71474479      -0.00035838      -2.71414282       0.00000000
Si      -0.00087966       2.71490769      -2.71421169       0.00000000
Si      -2.71538173      -0.00034209      -2.71414282       0.00000000
Si      -0.00030951      -2.71554300      -2.71414282       0.00000000
Si      -2.71575151       2.71445157       0.00017217       0.00000000
