10
Lattice="16.28999089631971 0.0 0.0 0.0 16.28999089631971 0.0 0.0 0.0 34.433804113860816" Properties=species:S:1:pos:R:3:initial_magmoms:R:1 pbc="T T T"
Si       1.09185354      -1.41724629      -1.51288446       0.00000000
Si      -1.37704257      -1.18056888       1.54622815       0.00000000
Si       1.13404464       1.42928460       1.57164720       0.00000000
Si       1.67596407       1.07512371      -1.40737923       0.00000000
Si      -2.50637940      -1.46961864      -1.84276049       0.00000000
Si       1.93067451       3.06300870      -0.01604616       0.00000000
Si      -0.49089915      -1.91044233      -3.07084280       0.00000000
Si      -2.45053728      -2.88618075       0.23815710       0.00000000
Si      -0.09021402      -2.58212790       2.88883391       0.00000000
Si       2.61016299       0.13481604       2.88837939       0.00000000
