10
Lattice="16.28999089631971 0.0 0.0 0.0 16.28999089631971 0.0 0.0 0.0 34.433804113860816" Properties=species:S:1:pos:R:3:initial_magmoms:R:1 pbc="T T T"
Si       1.35558864      -1.35808101       1.35937848       0.00000000
Si      -1.36195803       1.35736425       1.35951621       0.00000000
Si       1.35682668       1.34630334      -1.37762496       0.00000000
Si      -1.37316555      -1.34838846      -1.36014980       0.00000000
Si      -0.12105099       2.65469985      -2.70714932       0.00000000
Si       2.71314837       2.71622718      -0.00151509       0.00000000
Si       2.71305063       0.00014661       2.71710413       0.00000000
Si      -2.72174949      -2.70954828       0.00120518       0.00000000
Si      -2.72375316       0.10891494      -2.70568243       0.00000000
Si      -0.00179190      -2.71454931       2.71713857       0.00000000
