10
Lattice="16.28999089631971 0.0 0.0 0.0 16.28999089631971 0.0 0.0 0.0 34.433804113860816" Properties=species:S:1:pos:R:3:initial_magmoms:R:1 pbc="T T T"
Si       1.48346514      -0.12056229       1.89520320       0.00000000
Si      -1.11084768      -2.15844129       0.51471679       0.00000000
Si      -1.58936643       1.92920841       0.19004027       0.00000000
Si       0.61085871       1.87356177      -2.19143739       0.00000000
Si       1.27076661      -1.13510349      -2.47238295       0.00000000
Si       2.13952860       2.78260893       1.04541088       0.00000000
Si       0.01697418       3.63646557       0.52391062       0.00000000
Si      -3.05005815       1.24317135      -1.68388283       0.00000000
Si       3.07547055       0.45708111      -2.13758289       0.00000000
Si       0.64101150      -3.79032462       0.08202137       0.00000000
