10
Lattice="16.28999089631971 0.0 0.0 0.0 16.28999089631971 0.0 0.0 0.0 34.433804113860816" Properties=species:S:1:pos:R:3:initial_magmoms:R:1 pbc="T T T"
Si      -1.92735949       0.74823391       1.05246981       0.00000000
Si       1.01698470       1.75225177      -1.24371527       0.00000000
Si       1.74794958      -1.22309230       1.05732498       0.00000000
Si      -0.47675943      -1.86607393      -1.42018861       0.00000000
Si       2.88852651      -0.99103636      -1.00822235       0.00000000
Si      -2.54777066      -1.34869797       1.94616526       0.00000000
Si       1.78981488       0.06158760       3.08823188       0.00000000
Si       0.74984499      -3.40867177       0.81157078       0.00000000
Si      -2.90702285       1.99026496      -0.78233647       0.00000000
Si       1.50943140      -1.64984047      -2.89526474       0.00000000
