10
Lattice="16.28999089631971 0.0 0.0 0.0 16.28999089631971 0.0 0.0 0.0 34.433804113860816" Properties=species:S:1:pos:R:3:initial_magmoms:R:1 pbc="T T T"
Si      -2.14936776       0.70247367      -0.47728723       0.00000000
Si       1.14727212      -1.28417328      -1.55551354       0.00000000
Si      -0.50538096      -1.10159496       2.04605778       0.00000000
Si       1.16409969       2.07805014       0.42987185       0.00000000
Si      -0.86423337       1.00186758       3.14057129       0.00000000
Si      -2.61571788       1.73201796       1.60530484       0.00000000
Si       3.38840145      -0.70807743      -1.25666238       0.00000000
Si       1.11581613       2.17455210       2.80628774       0.00000000
Si       1.24800948      -2.70943425       2.35909567       0.00000000
Si      -2.21280102       1.96224453      -2.41270913       0.00000000
