10
Lattice="16.28999089631971 0.0 0.0 0.0 16.28999089631971 0.0 0.0 0.0 34.433804113860816" Properties=species:S:1:pos:R:3:initial_magmoms:R:1 pbc="T T T"
Si      -1.98004950      -1.17268452       0.33428356       0.00000000
Si       0.04828356      -0.09650196      -2.37641589       0.00000000
Si       1.46579049      -1.53559314       1.10019509       0.00000000
Si      -0.21975210       2.35001169       0.42284735       0.00000000
Si       3.30432876      -0.10746513       1.17147310       0.00000000
Si      -1.92489156       2.82794400      -1.21279369       0.00000000
Si      -1.11581613      -2.17455210      -2.80628774       0.00000000
Si      -1.62119709      -3.27614706      -0.76022995       0.00000000
Si      -2.16811755      -1.37686338       2.71617442       0.00000000
Si       1.81561824       3.33622458      -0.49398763       0.00000000
