10
Lattice="16.28999089631971 0.0 0.0 0.0 16.28999089631971 0.0 0.0 0.0 34.433804113860816" Properties=species:S:1:pos:R:3:initial_magmoms:R:1 pbc="T T T"
Si      -1.17099036      -1.54126206       1.37133432       0.00000000
Si       1.59454665       1.18921887       1.36304954       0.00000000
Si       0.82427400      -0.89666676      -2.22206039       0.00000000
Si      -1.19946528       2.19388833      -0.44679019       0.00000000
Si       1.86277779       1.14637617      -2.89190155       0.00000000
Si      -2.41352640      -0.11070684       2.72316834       0.00000000
Si      -0.18642276       2.57271228      -2.62583140       0.00000000
Si      -2.95889931      -2.34269748       0.00758519       0.00000000
Si       0.29339919       2.60465976       2.71745922       0.00000000
Si       0.30688731      -2.84965857       2.70085867       0.00000000
