10
Lattice="16.28999089631971 0.0 0.0 0.0 16.28999089631971 0.0 0.0 0.0 34.433804113860816" Properties=species:S:1:pos:R:3:initial_magmoms:R:1 pbc="T T T"
Si       1.35171162      -1.35469269       1.35714028       0.00000000
Si      -1.35575154       1.35311256       1.35831103       0.00000000
Si      -1.35801585      -1.35692442      -1.35789782       0.00000000
Si       1.35695700       1.35796698      -1.35803556       0.00000000
Si      -2.69941264      -0.00490329       2.72726211       0.00000000
Si       2.71502172      -2.71278999       0.00006887       0.00000000
Si       0.00982287      -2.71111212       2.71765507       0.00000000
Si       2.71391400       0.00081450      -2.71517584       0.00000000
Si       2.71337643       2.71573848       0.00189386       0.00000000
Si      -0.00089595      -2.71404432      -2.71521027       0.00000000
