10
Lattice="16.28999089631971 0.0 0.0 0.0 16.28999089631971 0.0 0.0 0.0 34.433804113860816" Properties=species:S:1:pos:R:3:initial_magmoms:R:1 pbc="T T T"
Si       1.85450247      -0.79325784       1.18159665       0.00000000
Si       1.35347094       1.34991972      -1.36664402       0.00000000
Si      -1.35182565      -1.37912769      -1.36020489       0.00000000
Si      -1.42848639       1.31548266       1.41560891       0.00000000
Si       1.23531957      -0.89736723       3.39775752       0.00000000
Si       2.71026504       2.68441185      -0.00089528       0.00000000
Si       0.00524538       2.69711154      -2.72071968       0.00000000
Si      -2.72749986       2.69455238       0.00313348       0.00000000
Si      -2.71086614      -0.01389537      -2.71789611       0.00000000
Si      -2.69548675      -2.73714354       0.00874619       0.00000000
