10
Lattice="16.28999089631971 0.0 0.0 0.0 16.28999089631971 0.0 0.0 0.0 34.433804113860816" Properties=species:S:1:pos:R:3:initial_magmoms:R:1 pbc="T T T"
Si       1.37909511       0.65880411       1.88704239       0.00000000
Si      -1.98619083      -0.21623346       1.47507612       0.00000000
Si      -0.55459305       1.78258931      -1.70344124       0.00000000
Si       1.07342955      -2.13333840      -1.01834589       0.00000000
Si      -1.59037641       0.07951149      -3.00049450       0.00000000
Si      -3.38723183       0.62701092      -0.24992069       0.00000000
Si      -1.50943140       1.64984047       2.89526474       0.00000000
Si      -2.92905114      -1.40530572      -1.68701631       0.00000000
Si       3.13572726      -0.88708824       1.72427370       0.00000000
Si      -0.49244670       3.40209224       1.65154947       0.00000000
