10
Lattice="16.28999089631971 0.0 0.0 0.0 16.28999089631971 0.0 0.0 0.0 34.433804113860816" Properties=species:S:1:pos:R:3:initial_magmoms:R:1 pbc="T T T"
Si       0.11174451      -1.59679467      -1.70547284       0.00000000
Si       1.83145538       1.35770634      -0.59928626       0.00000000
Si      -2.32561320       0.46527498      -0.24933531       0.00000000
Si       0.32125183      -0.69615315       2.28654361       0.00000000
Si      -2.95025325      -1.39945761       1.13111666       0.00000000
Si       3.45970604       0.08293239       0.53723651       0.00000000
Si       0.99362810       3.36266325       0.33569534       0.00000000
Si      -1.95436410      -0.31136706       3.06099473       0.00000000
Si      -0.86791884      -0.35476362      -3.54027911       0.00000000
Si       2.56282751       0.00809613       2.80973112       0.00000000
