10
Lattice="16.28999089631971 0.0 0.0 0.0 16.28999089631971 0.0 0.0 0.0 34.433804113860816" Properties=species:S:1:pos:R:3:initial_magmoms:R:1 pbc="T T T"
Si      -1.08804168      -0.14885802      -2.08080151       0.00000000
Si       1.99143621       0.81199134      -1.02127277       0.00000000
Si      -0.94462452       0.89151912       1.99643864       0.00000000
Si       1.02855060      -2.03292684       0.83281645       0.00000000
Si       2.93431770      -1.28151801      -0.41124315       0.00000000
Si      -3.13518969      -0.05025465       1.82382189       0.00000000
Si       0.76051494       0.41358681       3.63207969       0.00000000
Si      -2.34835011      -2.14873245      -2.00976453       0.00000000
Si       3.04034931       2.30184216       0.42250301       0.00000000
Si       0.48718503      -0.75658905      -3.75445750       0.00000000
