10
Lattice="16.28999089631971 0.0 0.0 0.0 16.28999089631971 0.0 0.0 0.0 34.433804113860816" Properties=species:S:1:pos:R:3:initial_magmoms:R:1 pbc="T T T"
Si       0.60224130       2.29098392       0.36427542       0.00000000
Si      -1.01304252      -0.37882395       2.17904121       0.00000000
Si       2.04920055      -1.42633611      -0.26607015       0.00000000
Si      -1.17968922      -0.35359074      -2.24980272       0.00000000
Si      -2.74988232       1.28773006      -1.60785295       0.00000000
Si       1.58579892       2.74229837      -1.74359108       0.00000000
Si       1.01069676      -3.46937904       0.40377101       0.00000000
Si       0.18642276      -2.57271228       2.62583140       0.00000000
Si       1.42734609       2.22857693       2.60567628       0.00000000
Si       2.85839001      -0.95842215      -2.50261585       0.00000000
