10
Lattice="16.28999089631971 0.0 0.0 0.0 16.28999089631971 0.0 0.0 0.0 34.433804113860816" Properties=species:S:1:pos:R:3:initial_magmoms:R:1 pbc="T T T"
Si      -1.44133920       1.28209468       1.30256267       0.00000000
Si      -1.36099692      -1.33498246      -1.36612751       0.00000000
Si       1.35679410       1.37589250      -1.36158224       0.00000000
Si       1.39476609      -1.19635226       1.59046387       0.00000000
Si       0.39047130       2.13445264       2.64730677       0.00000000
Si       2.34207846       0.74890669       2.74954080       0.00000000
Si       2.70671382      -2.69061997       0.02789140       0.00000000
Si      -2.70106119      -2.70164830       0.01625276       0.00000000
Si      -0.00452862      -2.69519746      -2.72323335       0.00000000
Si       2.71033020       0.01809493      -2.72285458       0.00000000
