10
Lattice="16.28999089631971 0.0 0.0 0.0 16.28999089631971 0.0 0.0 0.0 34.433804113860816" Properties=species:S:1:pos:R:3:initial_magmoms:R:1 pbc="T T T"
Si       1.24690176       1.98744353       0.15574418       0.00000000
Si      -1.30155471       0.18278846      -1.98662500       0.00000000
Si       1.68145380      -1.66655727       0.52115592       0.00000000
Si      -1.09560024      -0.99247151       1.93945067       0.00000000
Si       2.20599180       1.28089736       2.32834627       0.00000000
Si       0.47368062       1.20215150      -3.32255405       0.00000000
Si       0.61095645      -2.54136285       2.56263400       0.00000000
Si       2.30549112       2.05450946      -1.97780995       0.00000000
Si       2.19867759      -2.83269321      -1.47941479       0.00000000
Si       3.49596432      -0.63144438       1.69834504       0.00000000
