10
Lattice="16.28999089631971 0.0 0.0 0.0 16.28999089631971 0.0 0.0 0.0 34.433804113860816" Properties=species:S:1:pos:R:3:initial_magmoms:R:1 pbc="T T T"
Si      -1.24690176      -1.98744353      -0.15574418       0.00000000
Si       1.05858936       0.06706593      -2.13355413       0.00000000
Si      -0.40022901       2.27765151      -0.61054612       0.00000000
Si       0.95909004      -0.70654617       2.17260208       0.00000000
Si       1.70303805       3.21823611      -0.15629512       0.00000000
Si      -0.77322114      -0.78529203      -3.47829823       0.00000000
Si       0.43455204      -3.65400080       0.36541173       0.00000000
Si       2.24906256      -2.61888791       1.54260085       0.00000000
Si      -2.54845647      -1.80465507      -2.14236919       0.00000000
Si       3.01019652      -1.31848002      -2.03132011       0.00000000
