10
Lattice="16.28999089631971 0.0 0.0 0.0 16.28999089631971 0.0 0.0 0.0 34.433804113860816" Properties=species:S:1:pos:R:3:initial_magmoms:R:1 pbc="T T T"
Si       1.90172718       0.67044264       1.20700881       0.00000000
Si      -1.81718208       1.05587219       1.05178113       0.00000000
Si       0.21263337      -2.28180939       0.70406839       0.00000000
Si       0.43326513       1.12156976      -2.18692656       0.00000000
Si       1.34965908       2.93674817       1.57848090       0.00000000
Si      -1.02335409       3.32096411       1.29226696       0.00000000
Si       2.69260668       1.78219442      -1.84868311       0.00000000
Si       3.74326281       0.48393355      -0.23501084       0.00000000
Si       2.47840947      -2.91259077       0.48155702       0.00000000
Si      -0.83627973      -3.77166021      -0.73970739       0.00000000
