10
Lattice="16.28999089631971 0.0 0.0 0.0 16.28999089631971 0.0 0.0 0.0 34.433804113860816" Properties=species:S:1:pos:R:3:initial_magmoms:R:1 pbc="T T T"
Si       0.55206810      -2.26630552      -0.37147209       0.00000000
Si       0.41950008      -0.05520681       2.34893769       0.00000000
Si       1.57744215       1.80915111      -0.28387244       0.00000000
Si      -2.37301317       0.38421594      -0.28621394       0.00000000
Si       1.16256843       0.87190596      -2.34446130       0.00000000
Si      -1.34965908      -2.93674817      -1.57848090       0.00000000
Si       0.12735522       3.68206128      -0.07065821       0.00000000
Si      -3.16684116      -1.88087598      -0.52669976       0.00000000
Si       1.34294760      -1.15455375      -3.42716400       0.00000000
Si       2.39360373      -2.45281462      -1.81349174       0.00000000
