10
Lattice="16.28999089631971 0.0 0.0 0.0 16.28999089631971 0.0 0.0 0.0 34.433804113860816" Properties=species:S:1:pos:R:3:initial_magmoms:R:1 pbc="T T T"
Si       1.55292570      -0.28695649       1.72086476       0.00000000
Si       1.15914753       1.07053970      -1.76521552       0.00000000
Si      -1.97357097       0.88589255       0.99183185       0.00000000
Si      -0.45348102      -2.23360076      -0.76219268       0.00000000
Si      -2.63348864      -1.68656627      -1.49404916       0.00000000
Si       0.14784804      -1.17419786       3.35351006       0.00000000
Si       2.47155138      -0.75719015      -2.55378451       0.00000000
Si       1.70929341       1.82178563       2.69523866       0.00000000
Si       0.77182020      -2.32216949      -2.86689127       0.00000000
Si      -1.75140469       0.41084357       3.33002619       0.00000000
