10
Lattice="16.28999089631971 0.0 0.0 0.0 16.28999089631971 0.0 0.0 0.0 34.433804113860816" Properties=species:S:1:pos:R:3:initial_magmoms:R:1 pbc="T T T"
Si       1.25514450      -1.31957145      -1.44808001       0.00000000
Si      -2.24112933      -0.57609585      -0.29885115       0.00000000
Si       1.05187788      -0.26847549       2.07997510       0.00000000
Si       0.30716424       2.01269466      -1.19557678       0.00000000
Si      -2.28714858      -0.02518434      -2.57606319       0.00000000
Si      -0.53528940      -1.65706767      -3.00875862       0.00000000
Si      -0.31853466       3.53753640       0.44247463       0.00000000
Si       2.69153154       2.03247072      -1.37304871       0.00000000
Si      -3.38840145       0.70807743       1.25666238       0.00000000
Si       2.08709109      -3.07863081      -0.19382799       0.00000000
