10
Lattice="16.28999089631971 0.0 0.0 0.0 16.28999089631971 0.0 0.0 0.0 34.433804113860816" Properties=species:S:1:pos:R:3:initial_magmoms:R:1 pbc="T T T"
Si      -1.05187788       0.26847549      -2.07997510       0.00000000
Si       1.94509116       1.31691618       0.30380962       0.00000000
Si      -1.29324681      -0.38317338       1.95570343       0.00000000
Si       1.45008693      -1.87291017      -0.21321423       0.00000000
Si       3.41632251      -0.51978132       0.04331775       0.00000000
Si       0.26481024      -1.55211120       3.32603187       0.00000000
Si      -0.12735522      -3.68206128       0.07065821       0.00000000
Si       0.20326662      -1.05109596      -3.52805511       0.00000000
Si       1.03521321      -2.81015532      -2.27380309       0.00000000
Si       1.98366588       1.99443357       2.52200209       0.00000000
