10
Lattice="16.28999089631971 0.0 0.0 0.0 16.28999089631971 0.0 0.0 0.0 34.433804113860816" Properties=species:S:1:pos:R:3:initial_magmoms:R:1 pbc="T T T"
Si      -0.56542590       1.99868526       1.12746668       0.00000000
Si      -1.89902304      -1.34970795      -0.41992048       0.00000000
Si       1.29324681       0.38317338      -1.95570343       0.00000000
Si       1.55805705      -1.16893782       1.37032843       0.00000000
Si      -3.65241348       0.25813134      -0.73295836       0.00000000
Si       1.58539167      -3.35409471       0.46389247       0.00000000
Si       2.74333374      -1.48973679      -2.16891767       0.00000000
Si       3.42876807       0.30783213       1.65523389       0.00000000
Si      -0.81469548       1.44616104       3.44816864       0.00000000
Si      -1.20712158      -2.91467196      -2.17125917       0.00000000
