10
Lattice="16.28999089631971 0.0 0.0 0.0 16.28999089631971 0.0 0.0 0.0 34.433804113860816" Properties=species:S:1:pos:R:3:initial_magmoms:R:1 pbc="T T T"
Si      -1.35718506       1.35689184      -1.35738132       0.00000000
Si      -1.35663120      -1.35814617       1.35683038       0.00000000
Si       1.35703845       1.35637056       1.35844877       0.00000000
Si       1.35775521      -1.35780408      -1.35769122       0.00000000
Si      -0.00330687      -2.71420722       2.71400509       0.00000000
Si      -2.71419093       2.71485882       0.00006887       0.00000000
Si      -0.00011403       2.71484253      -2.71490037       0.00000000
Si      -2.71464705      -0.00133578      -2.71510697       0.00000000
Si       2.71551042       2.71448415       0.00010330       0.00000000
Si      -2.71448415      -2.71554300      -0.00027547       0.00000000
