10
Lattice="16.28999089631971 0.0 0.0 0.0 16.28999089631971 0.0 0.0 0.0 34.433804113860816" Properties=species:S:1:pos:R:3:initial_magmoms:R:1 pbc="T T T"
Si      -1.80470394      -1.59218460      -0.33480006       0.00000000
Si       1.16282907      -0.16441497      -2.19460530       0.00000000
Si       0.76155750       1.08126504       2.13927014       0.00000000
Si      -2.46461184       1.41648066      -0.05385450       0.00000000
Si       2.73536793      -1.29829671      -0.59412119       0.00000000
Si      -0.69615315      -3.29600457       1.03394441       0.00000000
Si      -1.55690046       2.54720214      -2.21468022       0.00000000
Si      -3.07547055      -0.45708111       2.13758289       0.00000000
Si       0.79236189      -0.55786734       3.85531416       0.00000000
Si      -1.34594496       3.66122637       0.92540900       0.00000000
