10
Lattice="16.28999089631971 0.0 0.0 0.0 16.28999089631971 0.0 0.0 0.0 34.433804113860816" Properties=species:S:1:pos:R:3:initial_magmoms:R:1 pbc="T T T"
Si      -1.69749945       1.24426278       1.04372362       0.00000000
Si       2.05196985       1.18185579       0.03488146       0.00000000
Si       0.03080439      -1.63913238       1.71604402       0.00000000
Si      -0.76155750      -1.08126504      -2.13927014       0.00000000
Si      -2.35356291      -1.65890844       1.89351595       0.00000000
Si      -2.10750246       2.57996133      -1.21386114       0.00000000
Si       3.86890758      -0.27106560       0.24599523       0.00000000
Si      -3.22616934       0.33521562      -2.19312464       0.00000000
Si      -0.51968358       3.89772459       0.21114820       0.00000000
Si       0.74088549      -0.93274911       3.89642815       0.00000000
