10
Lattice="16.28999089631971 0.0 0.0 0.0 16.28999089631971 0.0 0.0 0.0 34.433804113860816" Properties=species:S:1:pos:R:3:initial_magmoms:R:1 pbc="T T T"
Si       1.36099692       1.33498246       1.36612751       0.00000000
Si      -1.35685926       1.35443924      -1.35559076       0.00000000
Si       1.35646830      -1.36021500      -1.35710585       0.00000000
Si      -1.34006427      -1.36666584       1.38238027       0.00000000
Si      -0.08034228       2.61707714       2.66869018       0.00000000
Si       2.70878265      -2.71298547       0.00086085       0.00000000
Si      -2.71150308       2.71390490       0.00513064       0.00000000
Si      -0.00017919       2.71294379      -2.71424613       0.00000000
Si       2.71471221      -0.00211588      -2.71376405       0.00000000
Si       2.71779102       2.71087496       0.00454526       0.00000000
