10
Lattice="16.28999089631971 0.0 0.0 0.0 16.28999089631971 0.0 0.0 0.0 34.433804113860816" Properties=species:S:1:pos:R:3:initial_magmoms:R:1 pbc="T T T"
Si      -1.82682576       1.37342197       0.34743728       0.00000000
Si      -0.96425397      -1.65649752      -1.38337885       0.00000000
Si       1.71271431       1.08323028      -1.23076815       0.00000000
Si       1.22824971      -0.15941394       2.05435634       0.00000000
Si       1.84485879       2.16406038       2.25286733       0.00000000
Si       0.68092200      -3.35551194      -1.24368083       0.00000000
Si       2.91211443      -0.78038874      -2.05628463       0.00000000
Si      -2.80982952       0.44541747       2.30716947       0.00000000
Si       2.95327926      -1.74706992       1.65581926       0.00000000
Si      -1.14632730       3.56950457       0.72224944       0.00000000
