10
Lattice="16.28999089631971 0.0 0.0 0.0 16.28999089631971 0.0 0.0 0.0 34.433804113860816" Properties=species:S:1:pos:R:3:initial_magmoms:R:1 pbc="T T T"
Si      -1.10196963      -1.86061774      -0.99059223       0.00000000
Si      -0.73394595       0.67965138       2.18334544       0.00000000
Si      -0.45911736       1.92401190      -1.38761421       0.00000000
Si       1.97514621      -1.67457942      -0.02520556       0.00000000
Si       0.86167584       3.14634834       0.23136086       0.00000000
Si       0.87899211      -2.71906883      -2.12673623       0.00000000
Si       1.16985006       1.43125569       3.44119032       0.00000000
Si      -2.33157141       2.55347379       1.93621389       0.00000000
Si       0.77662575       1.88076195      -3.41428575       0.00000000
Si      -2.65647546      -1.29789760      -2.68149956       0.00000000
