10
Lattice="16.28999089631971 0.0 0.0 0.0 16.28999089631971 0.0 0.0 0.0 34.433804113860816" Properties=species:S:1:pos:R:3:initial_magmoms:R:1 pbc="T T T"
Si      -1.32014160      -1.33170750      -1.40844668       0.00000000
Si      -1.50860061       0.00552231       1.86459153       0.00000000
Si       1.41359733       1.41335298      -1.43578713       0.00000000
Si      -1.35408996       2.27118438       1.48323694       0.00000000
Si       0.17355366      -2.53050489      -2.77302466       0.00000000
Si      -2.54400930       0.16428465      -2.77102750       0.00000000
Si      -2.15304930      -3.14564787      -0.11266747       0.00000000
Si       0.54345069       2.67936291       2.83559092       0.00000000
Si      -3.61186767      -0.93506229       1.41034054       0.00000000
Si       2.87939826       0.14638194      -2.75694407       0.00000000
