10
Lattice="16.28999089631971 0.0 0.0 0.0 16.28999089631971 0.0 0.0 0.0 34.433804113860816" Properties=species:S:1:pos:R:3:initial_magmoms:R:1 pbc="T T T"
Si      -1.81628613       0.85724496      -1.17026792       0.00000000
Si      -0.87570153       0.60048198       2.12422256       0.00000000
Si      -0.04232142      -2.37232899      -0.23263491       0.00000000
Si       2.09873748       0.91676862      -0.77031906       0.00000000
Si      -0.49923963      -1.42641756       3.17886170       0.00000000
Si      -1.13028165       0.70540587      -3.35932937       0.00000000
Si       1.99070546       3.05825202       0.16903564       0.00000000
Si       2.23329451      -2.75711508      -1.00708603       0.00000000
Si      -0.83505798      -3.29569506       1.79658473       0.00000000
Si      -0.41357052      -1.59568695      -3.54296495       0.00000000
