10
Lattice="16.28999089631971 0.0 0.0 0.0 16.28999089631971 0.0 0.0 0.0 34.433804113860816" Properties=species:S:1:pos:R:3:initial_magmoms:R:1 pbc="T T T"
Si       1.23574311      -0.04324995      -2.02667154       0.00000000
Si      -2.07513423       1.11237894       0.52818042       0.00000000
Si       0.45911736      -1.92401190       1.38761421       0.00000000
Si       1.32079320       1.22233644       1.61897507       0.00000000
Si      -1.54162044       3.29818743      -0.47849241       0.00000000
Si       0.27956898       3.46444317       1.27146893       0.00000000
Si       3.50469317       1.10596068       0.46279059       0.00000000
Si       0.85928121       1.98364959      -3.08131068       0.00000000
Si      -0.27482859      -1.24436052       3.57095965       0.00000000
Si      -0.64285227      -3.78462964       0.39702198       0.00000000
