10
Lattice="16.28999089631971 0.0 0.0 0.0 16.28999089631971 0.0 0.0 0.0 34.433804113860816" Properties=species:S:1:pos:R:3:initial_magmoms:R:1 pbc="T T T"
Si       1.35694071      -1.35716877      -1.35751905       0.00000000
Si      -1.35770634       1.35775521      -1.35765679       0.00000000
Si       1.35711990       1.35879777       1.35899971       0.00000000
Si      -1.35847197      -1.35811359       1.35834546       0.00000000
Si       2.71497406      -2.71456560      -0.00072311       0.00000000
Si       2.71488709       2.71477737      -0.00010330       0.00000000
Si       0.00099369       2.71440270      -2.71558905       0.00000000
Si      -2.71551042      -2.71448415      -0.00010330       0.00000000
Si      -2.71533123       2.71476108      -0.00051651       0.00000000
Si       2.71540852       0.00091224      -2.71483150       0.00000000
