10
Lattice="16.28999089631971 0.0 0.0 0.0 16.28999089631971 0.0 0.0 0.0 34.433804113860816" Properties=species:S:1:pos:R:3:initial_magmoms:R:1 pbc="T T T"
Si       0.58095027       2.24306784      -0.39406067       0.00000000
Si       1.19825982      -0.92144385      -1.81121911       0.00000000
Si      -2.24679825      -0.69336756      -0.34599106       0.00000000
Si       0.93116898      -0.37295955       2.18795957       0.00000000
Si       2.99275712       2.10960387      -0.38424703       0.00000000
Si       3.11124895       0.44227350      -1.96379538       0.00000000
Si      -2.65144185      -2.38378086       1.23045824       0.00000000
Si      -0.92189997      -0.08187354       3.68665730       0.00000000
Si      -0.55719945       2.94604650      -2.40165588       0.00000000
Si      -3.95346897       0.75271203       0.29960870       0.00000000
