10
Lattice="16.28999089631971 0.0 0.0 0.0 16.28999089631971 0.0 0.0 0.0 34.433804113860816" Properties=species:S:1:pos:R:3:initial_magmoms:R:1 pbc="T T T"
Si       0.48770631      -0.72914040      -2.23527164       0.00000000
Si       1.82114055       0.80689257       1.36248583       0.00000000
Si      -0.85561596      -1.84538007       1.31137915       0.00000000
Si      -1.84907790       1.67852160       0.10195855       0.00000000
Si       0.46392291       2.11698324       2.83106085       0.00000000
Si      -2.27266677      -0.62753967       2.82463894       0.00000000
Si       1.52893053      -2.97124713      -1.88776550       0.00000000
Si      -0.90528417       3.50911035       1.38314612       0.00000000
Si      -1.66431672      -3.56412168      -0.18291247       0.00000000
Si      -3.73436847       0.61709778       1.33624381       0.00000000
