10
Lattice="16.28999089631971 0.0 0.0 0.0 16.28999089631971 0.0 0.0 0.0 34.433804113860816" Properties=species:S:1:pos:R:3:initial_magmoms:R:1 pbc="T T T"
Si       2.06760010      -0.14011029       1.11651672       0.00000000
Si      -1.22474640      -1.97211627       0.50232062       0.00000000
Si      -1.25344938       1.93984578       0.87320733       0.00000000
Si       2.69926114      -2.21012946       0.04094182       0.00000000
Si      -3.49286826       0.97880094       0.87830353       0.00000000
Si      -3.19481013      -1.24574517       1.52607262       0.00000000
Si       1.47462782      -0.25964631       3.44331347       0.00000000
Si       3.28068382       1.84112838       0.51485453       0.00000000
Si       1.47360155       3.32702073       1.12832752       0.00000000
Si       0.91936687      -1.94984784      -3.21563703       0.00000000
