10
Lattice="16.28999089631971 0.0 0.0 0.0 16.28999089631971 0.0 0.0 0.0 34.433804113860816" Properties=species:S:1:pos:R:3:initial_magmoms:R:1 pbc="T T T"
Si       1.35231435      -1.35277047       1.35796669       0.00000000
Si      -1.35653346      -1.35736425      -1.35717471       0.00000000
Si       1.35824391       1.35809912      -1.35665821       0.00000000
Si      -1.35646830       1.36021500       1.35710585       0.00000000
Si       0.00452862       2.69519746       2.72323335       0.00000000
Si      -2.71495656      -2.71197549      -0.00227263       0.00000000
Si      -2.71332756       2.71465424       0.00151509       0.00000000
Si       2.71485882       2.71329239       0.00037877       0.00000000
Si       0.00109143      -2.71437012      -2.71431499       0.00000000
Si      -2.71433754       0.00135207      -2.71472820       0.00000000
