10
Lattice="16.28999089631971 0.0 0.0 0.0 16.28999089631971 0.0 0.0 0.0 34.433804113860816" Properties=species:S:1:pos:R:3:initial_magmoms:R:1 pbc="T T T"
Si      -1.35231435       1.35277047      -1.35796669       0.00000000
Si      -1.33090929      -1.36202319       1.37525247       0.00000000
Si       1.36360332      -1.36055709      -1.35562519       0.00000000
Si       1.35892809       1.35734796       1.39315806       0.00000000
Si      -2.70878265       2.71298547      -0.00086085       0.00000000
Si      -2.70884781      -0.00459378      -2.71514141       0.00000000
Si       0.00592956       2.71086959      -2.71462490       0.00000000
Si      -2.52169200       0.07095924       2.89109824       0.00000000
Si      -2.71127502      -2.71821456       0.00523394       0.00000000
Si       2.72099980       2.71139722       0.00120518       0.00000000
