10
Lattice="16.28999089631971 0.0 0.0 0.0 16.28999089631971 0.0 0.0 0.0 34.433804113860816" Properties=species:S:1:pos:R:3:initial_magmoms:R:1 pbc="T T T"
Si       1.05720471       0.50564160      -2.04295874       0.00000000
Si      -2.25628880      -0.60229017      -0.41289598       0.00000000
Si       0.44615052       2.15477604       0.96576544       0.00000000
Si       0.24765687      -2.45791665       0.72913621       0.00000000
Si      -1.55373694       3.16825839      -0.18349784       0.00000000
Si       2.70293454      -1.17664299      -2.02556966       0.00000000
Si      -0.73293597      -0.00340461      -3.50188540       0.00000000
Si      -3.25378808       1.49955966      -0.74766161       0.00000000
Si      -2.17877935      -1.63115028      -2.50182387       0.00000000
Si       2.26313712      -2.89874034      -0.49894610       0.00000000
