10
Lattice="16.28999089631971 0.0 0.0 0.0 16.28999089631971 0.0 0.0 0.0 34.433804113860816" Properties=species:S:1:pos:R:3:initial_magmoms:R:1 pbc="T T T"
Si       1.34939192       1.36231641      -1.32651139       0.00000000
Si       1.35403457      -1.35856971       1.36079027       0.00000000
Si      -1.35993964       1.35707103       1.36020489       0.00000000
Si      -1.37728433      -1.36629117      -1.37584129       0.00000000
Si      -0.01511386       2.67097356      -2.66553604       0.00000000
Si       2.70514346       0.10733481      -2.70523479       0.00000000
Si       2.70714713      -2.71112841       0.00165282       0.00000000
Si       2.70980240       2.71598283       0.00516507       0.00000000
Si       2.71148027      -0.00086337       2.71751734       0.00000000
Si      -2.71835858       2.71106325       0.00275471       0.00000000
