10
Lattice="16.28999089631971 0.0 0.0 0.0 16.28999089631971 0.0 0.0 0.0 34.433804113860816" Properties=species:S:1:pos:R:3:initial_magmoms:R:1 pbc="T T T"
Si      -1.35724696       1.35555606      -1.36041149       0.00000000
Si       1.35850455      -1.35889551      -1.36058366       0.00000000
Si       1.36834371       1.35894438       1.35806999       0.00000000
Si      -1.36055383      -1.38315132       1.36564543       0.00000000
Si      -2.70926225       2.71081890       0.00096415       0.00000000
Si       2.71023246       2.71536381      -0.00244480       0.00000000
Si      -2.71293371      -2.71689507      -0.00657686       0.00000000
Si       0.00050499       2.71313208      -2.71748291       0.00000000
Si       2.71282257      -2.71818198      -0.00134292       0.00000000
Si       2.71500543      -0.00127062      -2.71703527       0.00000000
