10
Lattice="16.28999089631971 0.0 0.0 0.0 16.28999089631971 0.0 0.0 0.0 34.433804113860816" Properties=species:S:1:pos:R:3:initial_magmoms:R:1 pbc="T T T"
Si      -1.34305511      -1.34317566       1.36702967       0.00000000
Si       1.25550288      -1.43519787      -1.39940780       0.00000000
Si       1.37321442       1.36479968       1.36279431       0.00000000
Si      -1.40454661       1.24389855      -1.47560641       0.00000000
Si       1.61121132       0.28451367      -3.03572860       0.00000000
Si       0.39776922       2.41268651      -2.66369280       0.00000000
Si       2.72381832      -2.69146638       0.00978609       0.00000000
Si      -2.72549261      -2.69182476      -0.00660096       0.00000000
Si      -2.70197736       0.01033741       2.72506523       0.00000000
Si      -2.70894485       2.71996478      -0.02433094       0.00000000
