10
Lattice="16.28999089631971 0.0 0.0 0.0 16.28999089631971 0.0 0.0 0.0 34.433804113860816" Properties=species:S:1:pos:R:3:initial_magmoms:R:1 pbc="T T T"
Si      -0.96260868      -1.69995924      -1.31932303       0.00000000
Si      -1.25550288       1.43519787       1.39940780       0.00000000
Si       1.46831544      -1.25626851       1.40919389       0.00000000
Si       0.35570844       1.71971154      -1.63632081       0.00000000
Si       2.68237656       1.04832666      -1.76076464       0.00000000
Si      -2.61210802      -2.66896989       0.09852550       0.00000000
Si      -2.66004949       2.67909642      -0.07619861       0.00000000
Si      -2.59855799       0.09202221       2.76643747       0.00000000
Si       0.11280825      -2.62396062       2.76922661       0.00000000
Si       2.71085148      -2.68682373       0.05735986       0.00000000
