10
Lattice="16.28999089631971 0.0 0.0 0.0 16.28999089631971 0.0 0.0 0.0 34.433804113860816" Properties=species:S:1:pos:R:3:initial_magmoms:R:1 pbc="T T T"
Si       1.35750444      -1.35710361      -1.35714028       0.00000000
Si      -1.35776719      -1.35597960       1.35910301       0.00000000
Si      -1.35783235       1.35811359      -1.35741575       0.00000000
Si       1.35804527       1.36058967       1.35841433       0.00000000
Si       2.71353454      -0.00211770      -2.71362632       0.00000000
Si       0.00052143      -2.71386513      -2.71472820       0.00000000
Si      -0.00002501       2.71454257      -2.71452160       0.00000000
Si      -2.71389340      -0.00037467      -2.71548574       0.00000000
Si       2.71482145      -2.71467963      -0.00010330       0.00000000
Si      -2.71488709      -2.71477737       0.00010330       0.00000000
