10
Lattice="16.28999089631971 0.0 0.0 0.0 16.28999089631971 0.0 0.0 0.0 34.433804113860816" Properties=species:S:1:pos:R:3:initial_magmoms:R:1 pbc="T T T"
Si       1.35672894      -1.35283563      -1.35614170       0.00000000
Si      -1.35603010      -1.35498591       1.35648604       0.00000000
Si       1.35843939       1.36011726       1.35603840       0.00000000
Si      -1.35463730       1.36314720      -1.35893084       0.00000000
Si      -0.00368154      -2.70650205      -2.68781817       0.00000000
Si      -2.71301310      -2.71174743      -0.00110188       0.00000000
Si       0.00128691      -2.71256193       2.71352302       0.00000000
Si       2.71386513      -2.71303434      -0.00134292       0.00000000
Si      -2.71353454       0.00211770       2.71362632       0.00000000
Si       2.71223613       0.01485648      -2.71617442       0.00000000
