10
Lattice="16.28999089631971 0.0 0.0 0.0 16.28999089631971 0.0 0.0 0.0 34.433804113860816" Properties=species:S:1:pos:R:3:initial_magmoms:R:1 pbc="T T T"
Si       0.11849183      -1.66733037      -1.57954835       0.00000000
Si       0.88720227       1.92738393      -0.98670121       0.00000000
Si       1.26078084      -0.77302566       1.90846023       0.00000000
Si      -2.41180685       0.13346397      -0.00981364       0.00000000
Si      -0.56311924      -0.76095477       3.37358498       0.00000000
Si      -2.99275712      -2.10960387       0.38424703       0.00000000
Si      -1.79449730      -3.03104772      -1.42697207       0.00000000
Si      -2.97597842       1.77608241       1.57090546       0.00000000
Si       2.34431019       1.28800143      -2.71552018       0.00000000
Si      -0.95330546       3.34797523      -1.58092570       0.00000000
