10
Lattice="10.86 0.0 0.0 0.0 10.86 0.0 0.0 0.0 10.86" Properties=species:S:1:pos:R:3:initial_magmoms:R:1 pbc="T T T"
Si      -1.19781456       1.09956414      -1.46470992       0.00000000
Si       1.51718544       1.09956414       1.25029008       0.00000000
Si       1.51718544      -1.61543586      -1.46470992       0.00000000
Si      -2.55531456       2.45706414      -0.10720992       0.00000000
Si      -2.56479534      -0.36319098       2.46999840       0.00000000
Si       0.15968544       2.45706414       2.60779008       0.00000000
Si       0.00087966      -2.82857388       2.41435176       0.00000000
Si       0.15968544       2.45706414      -2.82220992       0.00000000
Si       2.87468544       2.45706414      -0.10720992       0.00000000
Si      -2.53392036       0.12961410      -2.87006994       0.00000000
