10
Lattice="16.28999089631971 0.0 0.0 0.0 16.28999089631971 0.0 0.0 0.0 34.5300574570662" Properties=species:S:1:pos:R:3:initial_magmoms:R:1 pbc="T T T"
Si       1.57428189      -1.74845457       0.20108439       0.00000000
Si      -1.86995258      -0.74948661       1.40413592       0.00000000
Si       0.78570254       1.88416886       1.39542398       0.00000000
Si       0.88739286      -0.12002472      -2.44037864       0.00000000
Si       2.10082356       0.58510422       2.88605631       0.00000000
Si      -0.62689526      -2.13381081       2.87522768       0.00000000
Si       3.33283626      -0.85823865       1.48078578       0.00000000
Si      -0.22193822       1.81826929      -3.27472889       0.00000000
Si       0.68200854      -3.52321749       1.42568614       0.00000000
Si      -2.30430914      -2.33500860      -2.06206712       0.00000000
