10
Lattice="16.28999089631971 0.0 0.0 0.0 16.28999089631971 0.0 0.0 0.0 34.5300574570662" Properties=species:S:1:pos:R:3:initial_magmoms:R:1 pbc="T T T"
Si       1.35586557       1.35488817       1.35841322       0.00000000
Si       1.35762489      -1.35737891      -1.35689390       0.00000000
Si      -1.35775521      -1.35699121       1.35782621       0.00000000
Si      -1.35764118       1.35741312      -1.35799886       0.00000000
Si       2.71261080       0.00281817      -2.71402950       0.00000000
Si       0.00048870       2.71277370      -2.71565242       0.00000000
Si      -2.71511946      -0.00037467      -2.71389138       0.00000000
Si       2.71450044       2.71476108       0.00013812       0.00000000
Si      -0.00123804      -2.71530057      -2.71437480       0.00000000
Si       2.71502172      -2.71483483       0.00041436       0.00000000
