10
Lattice="16.28999089631971 0.0 0.0 0.0 16.28999089631971 0.0 0.0 0.0 34.5300574570662" Properties=species:S:1:pos:R:3:initial_magmoms:R:1 pbc="T T T"
Si       1.26820908      -1.36792017       1.43634760       0.00000000
Si       1.35708732       1.35443205      -1.37502219       0.00000000
Si      -1.36169739      -1.35886293      -1.37039516       0.00000000
Si      -1.32245478       1.32901965       1.47995909       0.00000000
Si       2.71668330       2.69003286       0.00573199       0.00000000
Si       2.70588303      -2.71277370       0.00576652       0.00000000
Si      -2.71722250       2.71415835       0.02085617       0.00000000
Si      -2.72554343      -2.71382929       0.00897782       0.00000000
Si      -0.00192222       2.70989037      -2.73112189       0.00000000
Si       2.71298547      -0.00680922      -2.73039676       0.00000000
