10
Lattice="16.28999089631971 0.0 0.0 0.0 16.28999089631971 0.0 0.0 0.0 34.5300574570662" Properties=species:S:1:pos:R:3:initial_magmoms:R:1 pbc="T T T"
Si       0.59075685      -1.94882157       1.34529179       0.00000000
Si      -1.35988920      -1.16388792      -1.67729848       0.00000000
Si       1.29665142       1.35472527      -1.63972975       0.00000000
Si       0.78635088       1.99640466       1.48793554       0.00000000
Si       2.49948873      -2.81587474       0.08173269       0.00000000
Si       2.67089211       0.80866818       2.55750466       0.00000000
Si      -2.62379772      -2.71161711      -0.38797994       0.00000000
Si       0.91522107      -1.01874402       3.56902873       0.00000000
Si      -0.84680307       2.11064643       3.16077964       0.00000000
Si       0.07778475      -2.50874145      -3.10787956       0.00000000
