10
Lattice="16.28999089631971 0.0 0.0 0.0 16.28999089631971 0.0 0.0 0.0 34.5300574570662" Properties=species:S:1:pos:R:3:initial_magmoms:R:1 pbc="T T T"
Si       0.89850753       1.53345915      -1.48289415       0.00000000
Si       1.52313129       0.01925478       1.76645514       0.00000000
Si      -2.21301279       0.44554779       0.62751508       0.00000000
Si      -0.86669316      -1.90865043      -1.11338779       0.00000000
Si      -2.67004503      -1.86517242       0.43065912       0.00000000
Si      -0.03487689       0.61504524      -3.41965162       0.00000000
Si      -1.93386735      -0.75100158      -2.97262525       0.00000000
Si      -2.23923969       1.40111919       2.73333182       0.00000000
Si       3.53064573      -1.11397536       1.04325721       0.00000000
Si       3.24356706       1.42765560      -1.50934419       0.00000000
