10
Lattice="16.28999089631971 0.0 0.0 0.0 16.28999089631971 0.0 0.0 0.0 34.5300574570662" Properties=species:S:1:pos:R:3:initial_magmoms:R:1 pbc="T T T"
Si       0.86669316       1.90865043       1.11338779       0.00000000
Si      -1.80335187       0.04347801       1.54404691       0.00000000
Si       1.47075894      -1.90497608       0.27755276       0.00000000
Si      -1.06717419       1.15764885      -1.85923745       0.00000000
Si      -1.34631963       2.35419822       1.74090288       0.00000000
Si       0.83181627       2.52369567      -2.30626383       0.00000000
Si      -1.02630258      -1.37528325       3.22124180       0.00000000
Si       0.02505402      -3.75317432       0.12375580       0.00000000
Si       1.76520069       3.44210958      -0.36950635       0.00000000
Si      -1.74913875      -0.18496969      -3.65645889       0.00000000
