10
Lattice="16.28999089631971 0.0 0.0 0.0 16.28999089631971 0.0 0.0 0.0 34.5300574570662" Properties=species:S:1:pos:R:3:initial_magmoms:R:1 pbc="T T T"
Si      -1.96364547       0.90563603       0.85714010       0.00000000
Si       1.26609138       1.68267229      -1.00565396       0.00000000
Si      -0.47819295      -1.59256971      -1.64435679       0.00000000
Si       1.05217110      -1.09896642       1.80647550       0.00000000
Si      -1.05857307      -2.50241508       1.85975540       0.00000000
Si       3.22467066       0.41841354      -1.06639236       0.00000000
Si      -0.11709252       2.11559533      -2.80505079       0.00000000
Si      -0.54380907      -0.08784057      -3.49033469       0.00000000
Si      -1.07064396       2.50013707       2.51413489       0.00000000
Si      -2.75035473      -0.82547361       2.34376349       0.00000000
