10
Lattice="16.28999089631971 0.0 0.0 0.0 16.28999089631971 0.0 0.0 0.0 34.5300574570662" Properties=species:S:1:pos:R:3:initial_magmoms:R:1 pbc="T T T"
Si      -0.68978376      -1.86538975       1.36787243       0.00000000
Si      -1.38091959       2.03457376       0.26989817       0.00000000
Si       1.96533963       0.84986233       1.27617436       0.00000000
Si      -0.71218251      -0.79384984      -2.26904040       0.00000000
Si      -1.92179646      -0.42204688       2.77314296       0.00000000
Si       0.96752826       2.53176085      -2.09866900       0.00000000
Si      -3.23691748       0.87701776       1.28251063       0.00000000
Si      -2.44833813      -2.75560567       0.08817104       0.00000000
Si       0.80694144       2.28943081       2.77745232       0.00000000
Si       0.97959915      -2.47079131      -2.75304849       0.00000000
