10
Lattice="16.28999089631971 0.0 0.0 0.0 16.28999089631971 0.0 0.0 0.0 34.5300574570662" Properties=species:S:1:pos:R:3:initial_magmoms:R:1 pbc="T T T"
Si       1.23786081      -1.39807296      -1.37371695       0.00000000
Si      -1.32634809      -1.36120869       1.34167649       0.00000000
Si       1.38570885       1.35803214       1.33587544       0.00000000
Si      -1.39942503       1.27009872      -1.40911028       0.00000000
Si       2.13120441       0.43702812      -2.63000367       0.00000000
Si       0.38460690       2.26836621      -2.68886502       0.00000000
Si      -2.66321952       2.70695817      -0.00487219       0.00000000
Si      -2.68465716      -0.00298107       2.69449584       0.00000000
Si      -2.66683590      -2.72647359      -0.01803851       0.00000000
Si       0.02746494      -2.71293660       2.69611875       0.00000000
