10
Lattice="16.28999089631971 0.0 0.0 0.0 16.28999089631971 0.0 0.0 0.0 34.5300574570662" Properties=species:S:1:pos:R:3:initial_magmoms:R:1 pbc="T T T"
Si      -1.35959598      -1.33560081      -1.38075418       0.00000000
Si      -1.41151221       1.38979764       1.30019551       0.00000000
Si       1.36011726       1.37751498      -1.37916580       0.00000000
Si       1.20806640      -1.53933984       1.46818433       0.00000000
Si       2.59414992       0.04406445       2.54403793       0.00000000
Si      -2.71668330      -2.69003286      -0.00573199       0.00000000
Si       2.69773803      -2.71709055       0.00894329       0.00000000
Si       2.68394040       2.74224231      -0.05034485       0.00000000
Si      -0.00369783      -2.69684208      -2.73612875       0.00000000
Si       2.71024875       0.02057427      -2.73647405       0.00000000
