10
Lattice="16.28999089631971 0.0 0.0 0.0 16.28999089631971 0.0 0.0 0.0 34.5300574570662" Properties=species:S:1:pos:R:3:initial_magmoms:R:1 pbc="T T T"
Si       2.32536655       0.42320280      -0.06332816       0.00000000
Si      -1.39713370       1.79050395      -0.75607056       0.00000000
Si      -0.63826012      -2.11688780      -0.94415589       0.00000000
Si      -0.21879914       0.01000532       2.39949503       0.00000000
Si      -2.30080516      -1.04001550       2.57176559       0.00000000
Si       3.10241584      -0.99555846       1.61386673       0.00000000
Si      -0.53602082       3.72692883       0.32993488       0.00000000
Si      -0.76149006      -1.77487925      -3.27531590       0.00000000
Si       0.80015014      -3.72541127       0.17551638       0.00000000
Si      -3.69101005      -0.76707329       0.69719678       0.00000000
