10
Lattice="16.28999089631971 0.0 0.0 0.0 16.28999089631971 0.0 0.0 0.0 34.5300574570662" Properties=species:S:1:pos:R:3:initial_magmoms:R:1 pbc="T T T"
Si      -2.08466388       1.00429479       0.47016153       0.00000000
Si       1.93727196       0.34795440       1.33762611       0.00000000
Si      -0.71936640      -2.19758616       0.56967721       0.00000000
Si       0.20468385       0.99409725      -2.20125786       0.00000000
Si      -0.69313950      -3.15315756      -1.53613952       0.00000000
Si      -1.85135850       0.35192916      -3.15970920       0.00000000
Si      -1.52127423       2.99348298       1.50803204       0.00000000
Si       0.36963639       3.67119585       0.28131654       0.00000000
Si       2.41316802       2.65206087       0.93614491       0.00000000
Si       0.92348010       0.44049789       3.57983665       0.00000000
