10
Lattice="16.28999089631971 0.0 0.0 0.0 16.28999089631971 0.0 0.0 0.0 34.5300574570662" Properties=species:S:1:pos:R:3:initial_magmoms:R:1 pbc="T T T"
Si      -0.58419198      -2.23502058       0.71373669       0.00000000
Si       1.60495596       0.98813511       1.55181618       0.00000000
Si      -1.94818626       1.48414932       0.04654654       0.00000000
Si       1.01379186      -0.09254349      -2.24221053       0.00000000
Si       1.11309570      -2.67766875       2.25913027       0.00000000
Si      -0.92348010      -0.44049789      -3.57983665       0.00000000
Si       1.48968792       2.21156298      -2.64369174       0.00000000
Si       3.73386348       0.18806805       0.72464819       0.00000000
Si       1.77359004       3.39677451       1.17101849       0.00000000
Si      -0.62214768      -3.78564939      -1.18230983       0.00000000
