10
Lattice="16.28999089631971 0.0 0.0 0.0 16.28999089631971 0.0 0.0 0.0 34.5300574570662" Properties=species:S:1:pos:R:3:initial_magmoms:R:1 pbc="T T T"
Si       0.26469621       2.27413287       0.19830623       0.00000000
Si      -0.27463311      -0.24278616      -2.30988948       0.00000000
Si      -1.89091062      -0.67771287       1.22671551       0.00000000
Si       2.04353163      -1.01913498       0.65482838       0.00000000
Si      -2.45430027      -2.66690106       0.18884499       0.00000000
Si      -0.16495254      -2.67709860      -2.48257440       0.00000000
Si      -0.36963639      -3.67119585      -0.28131654       0.00000000
Si      -0.27122850       2.77571826       2.47038528       0.00000000
Si       2.54583378       2.73663855      -0.33808398       0.00000000
Si       1.43190729       1.17185373      -3.29959054       0.00000000
