10
Lattice="16.28999089631971 0.0 0.0 0.0 16.28999089631971 0.0 0.0 0.0 34.5300574570662" Properties=species:S:1:pos:R:3:initial_magmoms:R:1 pbc="T T T"
Si      -1.25797896      -0.73805103       1.83065142       0.00000000
Si       1.12182714      -1.96884198      -1.00561943       0.00000000
Si       1.22103324       1.59244524       1.47871397       0.00000000
Si      -2.67639813      -0.26774244      -0.89695327       0.00000000
Si      -2.38477455      -2.37203577       0.39706135       0.00000000
Si      -0.06753834      -2.20779999       3.15953797       0.00000000
Si       3.17097882       2.38309668       0.07762361       0.00000000
Si      -2.24868789       0.39539088      -3.27503966       0.00000000
Si       2.98028808      -2.64639195       0.47554515       0.00000000
Si      -0.53597358      -4.02103989       0.03007570       0.00000000
