10
Lattice="16.28999089631971 0.0 0.0 0.0 16.28999089631971 0.0 0.0 0.0 34.5300574570662" Properties=species:S:1:pos:R:3:initial_magmoms:R:1 pbc="T T T"
Si       1.40675553      -1.27252593      -1.40085068       0.00000000
Si      -1.17385740      -1.39536882       1.49901969       0.00000000
Si      -1.31095404       1.44240524      -1.38517403       0.00000000
Si       1.11074994       1.13527195       1.80443822       0.00000000
Si       2.55003660       2.54766545       0.09927397       0.00000000
Si      -2.56484421      -2.69892720       0.08936384       0.00000000
Si      -0.79798194       2.00232512       3.06799732       0.00000000
Si      -2.39823009       0.13662979       2.89496710       0.00000000
Si       2.83779945      -2.54462832       0.00203727       0.00000000
Si       0.05634711      -2.63994111      -2.76430529       0.00000000
