10
Lattice="16.28999089631971 0.0 0.0 0.0 16.28999089631971 0.0 0.0 0.0 34.5300574570662" Properties=species:S:1:pos:R:3:initial_magmoms:R:1 pbc="T T T"
Si       1.80553473      -0.39350124      -1.43486281       0.00000000
Si      -1.44570492      -1.84819824      -0.15379696       0.00000000
Si       0.96612732      -0.26394687       2.15978724       0.00000000
Si      -1.47075894       1.90497608      -0.27755276       0.00000000
Si      -2.61288342      -1.55714481       1.89021093       0.00000000
Si       0.94846896      -2.06355204      -2.91423489       0.00000000
Si       3.21501069       0.33077824       1.86534928       0.00000000
Si       2.48683140       1.72326764      -2.27895054       0.00000000
Si       3.73516668      -0.97705791      -0.10697418       0.00000000
Si      -2.49706152       0.52969283       2.94368904       0.00000000
