10
Lattice="16.28999089631971 0.0 0.0 0.0 16.28999089631971 0.0 0.0 0.0 34.5300574570662" Properties=species:S:1:pos:R:3:initial_magmoms:R:1 pbc="T T T"
Si      -0.68268132      -0.07592769      -2.22715542       0.00000000
Si       1.88024067       1.15390215       0.85147716       0.00000000
Si      -1.77468147       1.55292570       0.52648008       0.00000000
Si      -0.07600914      -2.43592515       0.41688162       0.00000000
Si      -2.96381889      -0.53843337      -1.69076521       0.00000000
Si      -3.49974360      -0.03684798       0.58131384       0.00000000
Si       1.56903651       0.65901195       3.16195366       0.00000000
Si      -0.50808510       2.12995008      -3.01009038       0.00000000
Si       3.68773020       0.61273206      -0.57060952       0.00000000
Si      -0.90108135      -2.64648969       2.58046717       0.00000000
