10
Lattice="16.28999089631971 0.0 0.0 0.0 16.28999089631971 0.0 0.0 0.0 34.5300574570662" Properties=species:S:1:pos:R:3:initial_magmoms:R:1 pbc="T T T"
Si      -1.05217110       1.09896642      -1.80647550       0.00000000
Si       1.81335393      -1.38751704      -0.81535870       0.00000000
Si      -2.11074417      -1.40344866       0.05327991       0.00000000
Si       1.05262722       1.80716603       1.61317613       0.00000000
Si       3.54450852      -0.41490630       0.67789447       0.00000000
Si       1.06220574      -3.49901055       0.02686440       0.00000000
Si      -3.01581657       2.00460246      -0.94933540       0.00000000
Si      -1.53036405      -0.49360329      -3.45083228       0.00000000
Si      -3.80252583       0.27349281       0.53728799       0.00000000
Si       2.12455809      -0.89262684      -3.12583520       0.00000000
