10
Lattice="16.28999089631971 0.0 0.0 0.0 16.28999089631971 0.0 0.0 0.0 34.5300574570662" Properties=species:S:1:pos:R:3:initial_magmoms:R:1 pbc="T T T"
Si       1.35615879      -1.35852803       1.36234965       0.00000000
Si      -1.36041048       1.36093176       1.36200435       0.00000000
Si       1.35531171       1.35827649      -1.37188340       0.00000000
Si      -1.37709144      -1.37380805      -1.39144814       0.00000000
Si      -0.15001461       2.67579540      -2.70783135       0.00000000
Si      -2.71471221      -2.71079351      -0.00069060       0.00000000
Si      -2.71422351       2.71265967       0.00756209       0.00000000
Si       2.71565703      -2.71563164      -0.00072513       0.00000000
Si       2.71471221       0.00072328       2.71803499       0.00000000
Si       2.71549413       2.71798650       0.00013812       0.00000000
