10
Lattice="16.28999089631971 0.0 0.0 0.0 16.28999089631971 0.0 0.0 0.0 34.5300574570662" Properties=species:S:1:pos:R:3:initial_magmoms:R:1 pbc="T T T"
Si      -1.33403697      -1.34861719      -1.37802630       0.00000000
Si       1.28539503      -1.35628978       1.45837779       0.00000000
Si       1.37826432       1.36748686      -1.37381363       0.00000000
Si      -1.55584161       1.12004176       1.48534578       0.00000000
Si      -0.12440673       2.73198613       2.55888587       0.00000000
Si       2.37713454       0.46256107       2.86499500       0.00000000
Si      -2.69912268      -2.70014962      -0.01477887       0.00000000
Si      -2.70829395       2.70049756       0.00980654       0.00000000
Si       2.71894761      -2.69622373      -0.00725132       0.00000000
Si      -2.69394246       0.00676361      -2.73564533       0.00000000
