10
Lattice="16.28999089631971 0.0 0.0 0.0 16.28999089631971 0.0 0.0 0.0 34.5300574570662" Properties=species:S:1:pos:R:3:initial_magmoms:R:1 pbc="T T T"
Si      -0.68129667      -2.11676888       0.84408773       0.00000000
Si      -1.37244879       1.43577779      -1.32046467       0.00000000
Si       0.82920987       1.30837370       1.85816702       0.00000000
Si       1.93349268      -0.55227661      -1.35699749       0.00000000
Si       3.13473357       1.19141150       1.42888911       0.00000000
Si       1.24833528      -2.70032555       2.17197636       0.00000000
Si       2.56280796       1.54122296      -2.28098781       0.00000000
Si      -2.48683140      -1.72326764       2.27895054       0.00000000
Si       3.77232417      -0.68644594       0.17430783       0.00000000
Si       0.15266988       3.51801446       1.60544139       0.00000000
