10
Lattice="16.28999089631971 0.0 0.0 0.0 16.28999089631971 0.0 0.0 0.0 34.5300574570662" Properties=species:S:1:pos:R:3:initial_magmoms:R:1 pbc="T T T"
Si      -1.40931306       0.78597621      -1.65747821       0.00000000
Si       1.45370331      -0.99973359      -1.53997236       0.00000000
Si      -0.84492972      -1.88322663       1.19960940       0.00000000
Si       1.41894045       2.15717067       0.32955505       0.00000000
Si      -1.96514415      -0.14270040       2.35716116       0.00000000
Si       2.01862422       1.34640108      -1.91804217       0.00000000
Si      -0.03709233       2.35219455      -2.72797965       0.00000000
Si      -1.68363666      -0.90875394      -3.22569618       0.00000000
Si       2.99867949      -2.26353785      -0.31001103       0.00000000
Si      -3.21481521       1.83213630      -0.72230015       0.00000000
