10
Lattice="16.28999089631971 0.0 0.0 0.0 16.28999089631971 0.0 0.0 0.0 34.5300574570662" Properties=species:S:1:pos:R:3:initial_magmoms:R:1 pbc="T T T"
Si      -1.38608352      -1.58340429      -1.07585360       0.00000000
Si       1.43259147      -1.31248530       1.37391722       0.00000000
Si      -1.47637899       1.38219021       1.27982276       0.00000000
Si       1.46541582       1.41175656      -1.26145276       0.00000000
Si      -1.89638406      -0.94172490       2.05181169       0.00000000
Si      -2.59414992      -0.04406445      -2.54403793       0.00000000
Si       0.08979048       2.69817786      -2.59438279       0.00000000
Si       0.10358811      -2.76115500      -2.53509465       0.00000000
Si      -0.01184283      -2.12946138       3.12138082       0.00000000
Si       3.34837692       0.11578932       1.77995640       0.00000000
