10
Lattice="16.28999089631971 0.0 0.0 0.0 16.28999089631971 0.0 0.0 0.0 34.5300574570662" Properties=species:S:1:pos:R:3:initial_magmoms:R:1 pbc="T T T"
Si       1.49315769      -1.11456180       1.44306370       0.00000000
Si       1.15033464       1.55716110      -1.39660145       0.00000000
Si      -1.23929433       1.58335542       1.41065032       0.00000000
Si      -0.67478067      -1.96110423      -1.61880250       0.00000000
Si       2.73478149      -2.55256155       0.05217495       0.00000000
Si       0.13983336      -2.47200750       2.80568959       0.00000000
Si      -0.58088511       2.75495081      -2.52065904       0.00000000
Si      -2.62472625      -2.75175567      -0.21771213       0.00000000
Si      -2.57691510       0.24636996       2.80140786       0.00000000
Si      -2.75851602       2.86498976      -0.05133241       0.00000000
