10
Lattice="16.28999089631971 0.0 0.0 0.0 16.28999089631971 0.0 0.0 0.0 34.5300574570662" Properties=species:S:1:pos:R:3:initial_magmoms:R:1 pbc="T T T"
Si      -0.06574644       1.69466892       1.55772082       0.00000000
Si      -1.86821865       0.19975777      -1.37405534       0.00000000
Si       0.07871328      -1.91218536       1.35986348       0.00000000
Si       1.91627415       0.62715753      -1.21238552       0.00000000
Si       3.30647904       0.35421532       0.66218328       0.00000000
Si       0.05722677      -3.38644665      -0.56674215       0.00000000
Si       2.16951849       1.57880629       2.31165052       0.00000000
Si      -1.72877625      -1.37101527       2.78195016       0.00000000
Si      -0.68993037       3.53754359       0.27786353       0.00000000
Si      -2.15664939       2.56863068      -1.36031237       0.00000000
