10
Lattice="16.28999089631971 0.0 0.0 0.0 16.28999089631971 0.0 0.0 0.0 34.5300574570662" Properties=species:S:1:pos:R:3:initial_magmoms:R:1 pbc="T T T"
Si       1.35466174       1.35738054      -1.39277065       0.00000000
Si      -1.35763074      -1.36132272      -1.39138944       0.00000000
Si       1.39476772      -1.38513870       1.45910292       0.00000000
Si      -1.47043870       1.40743971       1.40319873       0.00000000
Si       2.55119482       0.17969499       2.77321405       0.00000000
Si       2.68234561       2.72279205      -0.03235468       0.00000000
Si      -2.70004048      -2.72078838      -0.03677453       0.00000000
Si       2.71722250      -2.71415835      -0.02085617       0.00000000
Si      -2.74402348       2.70912474      -0.03670547       0.00000000
Si       0.00086663       2.70923877      -2.75204712       0.00000000
