10
Lattice="16.28999089631971 0.0 0.0 0.0 16.28999089631971 0.0 0.0 0.0 34.5300574570662" Properties=species:S:1:pos:R:3:initial_magmoms:R:1 pbc="T T T"
Si      -0.07871328       1.91218536      -1.35986348       0.00000000
Si      -1.80748953       0.54117009       1.42208668       0.00000000
Si       2.00195955      -0.71327394       1.10958949       0.00000000
Si      -0.02148651      -1.47426129      -1.92660563       0.00000000
Si       3.37971888      -0.08402382      -0.64957980       0.00000000
Si       2.24319816      -0.99272889      -2.51026752       0.00000000
Si       1.60555869      -3.02839245       0.83659470       0.00000000
Si      -0.14445972       3.60685428       0.19785734       0.00000000
Si      -3.68773020      -0.61273206       0.57060952       0.00000000
Si      -1.75954806       2.95117689       1.67505402       0.00000000
