10
Lattice="16.28999089631971 0.0 0.0 0.0 16.28999089631971 0.0 0.0 0.0 34.5300574570662" Properties=species:S:1:pos:R:3:initial_magmoms:R:1 pbc="T T T"
Si       1.35656604      -1.35267014       1.36062314       0.00000000
Si      -1.35749457      -1.35537288      -1.35768809       0.00000000
Si       1.35795300       1.35978494      -1.35741185       0.00000000
Si      -1.35811359       1.36115330       1.36158999       0.00000000
Si      -0.00004887      -2.71249418      -2.71579054       0.00000000
Si       0.01363473       2.71459166       2.71461651       0.00000000
Si       2.71645265      -2.71299917      -0.00072513       0.00000000
Si      -2.71423980       0.00213399      -2.71627396       0.00000000
Si      -0.01743030      -2.70255728       2.72815230       0.00000000
Si       2.71538892       0.00134393      -2.71579054       0.00000000
