10
Lattice="16.28999089631971 0.0 0.0 0.0 16.28999089631971 0.0 0.0 0.0 34.5300574570662" Properties=species:S:1:pos:R:3:initial_magmoms:R:1 pbc="T T T"
Si       1.35770634       1.35791811       1.35658313       0.00000000
Si      -1.35759231       1.35754344      -1.35817151       0.00000000
Si       1.35682668      -1.35801585      -1.35865493       0.00000000
Si      -1.35837423      -1.35863487       1.35713561       0.00000000
Si       0.00040725       2.71505430       2.70964418       0.00000000
Si       2.71472850       2.71425609      -0.00051795       0.00000000
Si      -2.71511946       2.71450044      -0.00020718       0.00000000
Si       2.71474710      -2.71497285       0.00020718       0.00000000
Si      -0.00257382       2.71446786      -2.71537618       0.00000000
Si      -2.71516833      -0.00021177      -2.71513447       0.00000000
