10
Lattice="16.28999089631971 0.0 0.0 0.0 16.28999089631971 0.0 0.0 0.0 34.5300574570662" Properties=species:S:1:pos:R:3:initial_magmoms:R:1 pbc="T T T"
Si      -1.35729909       1.35713619       1.35306106       0.00000000
Si       1.35702216       1.35633798      -1.35710108       0.00000000
Si      -1.35770634      -1.35791811      -1.35658313       0.00000000
Si       1.35513223      -1.35861858       1.36103751       0.00000000
Si       2.71362960       2.71194291       0.00037983       0.00000000
Si      -2.71425609       2.71313208       0.00034530       0.00000000
Si      -0.03126051       2.71182888       2.71572148       0.00000000
Si      -2.70269019       0.00851967       2.72597691       0.00000000
Si      -0.00110772       2.71414206      -2.71513447       0.00000000
Si       2.71467053      -2.71474479       0.00120855       0.00000000
