10
Lattice="16.28999089631971 0.0 0.0 0.0 16.28999089631971 0.0 0.0 0.0 34.5300574570662" Properties=species:S:1:pos:R:3:initial_magmoms:R:1 pbc="T T T"
Si      -2.11854708      -1.06021836      -0.03463367       0.00000000
Si       0.13445766       0.23205105      -2.42970885       0.00000000
Si      -0.78889212       2.15554167       0.94415589       0.00000000
Si       1.54753371      -1.77702723       0.83445383       0.00000000
Si      -2.20524246      -2.60872947       1.76624796       0.00000000
Si      -0.85074525      -1.83003489      -3.30097175       0.00000000
Si      -3.04034931       2.51595792       0.08974367       0.00000000
Si       0.72239634      -3.92338623      -0.01412280       0.00000000
Si       3.83975567      -1.07300601       0.42938150       0.00000000
Si       2.28581836       1.03661415      -3.16323127       0.00000000
