10
Lattice="16.28999089631971 0.0 0.0 0.0 16.28999089631971 0.0 0.0 0.0 34.5300574570662" Properties=species:S:1:pos:R:3:initial_magmoms:R:1 pbc="T T T"
Si      -2.08039590      -0.74095065       0.75120182       0.00000000
Si       0.55456047      -1.50228009      -1.69846542       0.00000000
Si      -1.01957481       2.05837182      -0.79667793       0.00000000
Si       1.35192339      -0.51725637       2.03796513       0.00000000
Si      -1.45621197      -2.58382532       2.03105911       0.00000000
Si      -1.67415588       2.92183956       1.27706036       0.00000000
Si       2.81968497      -1.09375947      -2.19231457       0.00000000
Si       0.52580862      -3.65133671      -0.73904723       0.00000000
Si      -3.15343449       1.14649020       1.77370645       0.00000000
Si       2.43817317       2.85500169      -0.89581378       0.00000000
