10
Lattice="16.28999089631971 0.0 0.0 0.0 16.28999089631971 0.0 0.0 0.0 34.5300574570662" Properties=species:S:1:pos:R:3:initial_magmoms:R:1 pbc="T T T"
Si       1.34094393       1.36989126       1.38681075       0.00000000
Si      -1.36762695      -1.35034326       1.38770854       0.00000000
Si      -1.48792860       1.28554164      -1.36483927       0.00000000
Si       1.50848658      -1.32743952      -1.53901588       0.00000000
Si       0.08039115       2.52498258      -2.61713914       0.00000000
Si      -0.14605614      -2.52592740      -2.82190288       0.00000000
Si       2.69390988       2.71226871       0.01779335       0.00000000
Si       2.71021119      -2.70589932       0.00291089       0.00000000
Si      -2.72629440      -2.69666289       0.05057620       0.00000000
Si       2.70198022       0.01036044       2.74632894       0.00000000
