10
Lattice="16.28999089631971 0.0 0.0 0.0 16.28999089631971 0.0 0.0 0.0 34.5300574570662" Properties=species:S:1:pos:R:3:initial_magmoms:R:1 pbc="T T T"
Si      -1.70860923      -1.07636175      -1.20050718       0.00000000
Si       1.04656734       1.70149050      -1.27485043       0.00000000
Si      -1.43707122       1.38572514       1.49038717       0.00000000
Si       1.81794512      -1.72151091       0.07158085       0.00000000
Si      -0.27776079      -2.35419822      -2.63678572       0.00000000
Si       2.49150078       0.37134684      -2.61554972       0.00000000
Si       0.11868894       2.78269038       2.55598534       0.00000000
Si       3.02245379       0.55672704       2.41033748       0.00000000
Si      -2.95697709       0.37302471      -2.62141984       0.00000000
Si       0.99582399      -3.65588325      -1.19688152       0.00000000
