10
Lattice="16.28999089631971 0.0 0.0 0.0 16.28999089631971 0.0 0.0 0.0 34.5300574570662" Properties=species:S:1:pos:R:3:initial_magmoms:R:1 pbc="T T T"
Si      -1.86085557      -1.41157737      -0.24720082       0.00000000
Si       1.00401786      -0.66725469       2.08920776       0.00000000
Si      -1.07224038       2.16858996       0.18376907       0.00000000
Si       3.26783494      -0.42565770       1.33762611       0.00000000
Si      -0.82223775      -3.15814230      -1.46065678       0.00000000
Si       0.18798660       3.15517752      -1.67905951       0.00000000
Si      -1.95901911      -0.14159268      -3.02245215       0.00000000
Si      -0.04170240       1.05107967       3.45110852       0.00000000
Si      -0.19197765       3.04906446       2.17335756       0.00000000
Si      -3.19779216       1.63931157       1.15720646       0.00000000
