10
Lattice="16.28999089631971 0.0 0.0 0.0 16.28999089631971 0.0 0.0 0.0 34.5300574570662" Properties=species:S:1:pos:R:3:initial_magmoms:R:1 pbc="T T T"
Si       0.91388529      -0.33032862       2.10937333       0.00000000
Si      -2.07673065       1.06051158       0.46197790       0.00000000
Si       1.78160702       1.01876031      -1.20882893       0.00000000
Si      -0.40360104      -2.19377430      -0.86515107       0.00000000
Si      -1.70290773      -0.67127832      -2.86092045       0.00000000
Si       1.70877769      -3.06846585      -0.06184337       0.00000000
Si      -3.27241665       0.44567811      -1.52598768       0.00000000
Si      -2.20042062      -2.97266436       0.57886221       0.00000000
Si       3.80054564      -0.01410714      -0.46636322       0.00000000
Si       2.26335445      -2.25549711       2.11051282       0.00000000
