10
Lattice="16.28999089631971 0.0 0.0 0.0 16.28999089631971 0.0 0.0 0.0 34.5300574570662" Properties=species:S:1:pos:R:3:initial_magmoms:R:1 pbc="T T T"
Si       1.73452662       0.47543994      -1.55337003       0.00000000
Si      -1.96530705      -1.05264351      -1.02095078       0.00000000
Si       1.13357223       1.96467174       1.04450029       0.00000000
Si       0.26570619      -2.29542390       1.61897718       0.00000000
Si      -2.79280647       1.07207748      -1.53189233       0.00000000
Si      -2.92428306       0.00987174       2.00063812       0.00000000
Si      -1.08352935      -0.98334585       3.23950821       0.00000000
Si       3.08399578      -1.44972855      -1.55223054       0.00000000
Si       2.86601766       2.36165904      -0.59712862       0.00000000
Si       0.82064133       0.80576856      -3.66274336       0.00000000
