10
Lattice="16.28999089631971 0.0 0.0 0.0 16.28999089631971 0.0 0.0 0.0 34.5300574570662" Properties=species:S:1:pos:R:3:initial_magmoms:R:1 pbc="T T T"
Si       1.65454272       1.19848788       1.28288700       0.00000000
Si      -1.84075371       0.99321759      -1.23887009       0.00000000
Si      -1.31377221      -1.51203780       1.45406986       0.00000000
Si       1.34923554      -1.31207805      -1.62053103       0.00000000
Si       1.08352935       0.98334585      -3.23950821       0.00000000
Si       0.14605614       2.52592740       2.82190288       0.00000000
Si       2.78848962      -2.63173095      -0.06011686       0.00000000
Si      -2.58023826      -0.17073549       2.87247909       0.00000000
Si      -2.64088593      -0.74914452      -2.74496845       0.00000000
Si      -3.00034107       2.65225635       0.20909554       0.00000000
