10
Lattice="16.28999089631971 0.0 0.0 0.0 16.28999089631971 0.0 0.0 0.0 34.5300574570662" Properties=species:S:1:pos:R:3:initial_magmoms:R:1 pbc="T T T"
Si      -1.35296595      -1.34237745       1.36901741       0.00000000
Si       1.36804627       1.36746405       1.36877570       0.00000000
Si      -1.24305732       1.38432420      -1.47109177       0.00000000
Si       1.30890380      -1.38940668      -1.44954155       0.00000000
Si       2.20117715       0.38535624      -2.67414329       0.00000000
Si       0.62689526       2.13381081      -2.87522768       0.00000000
Si      -2.61351873      -0.18728613      -2.63493249       0.00000000
Si      -2.69390988      -2.71226871      -0.01779335       0.00000000
Si       2.72771882      -2.68965819      -0.00908832       0.00000000
Si      -2.69733078       2.72777679      -0.02276913       0.00000000
