10
Lattice="16.28999089631971 0.0 0.0 0.0 16.28999089631971 0.0 0.0 0.0 34.5300574570662" Properties=species:S:1:pos:R:3:initial_magmoms:R:1 pbc="T T T"
Si       1.35369900      -1.35249354      -1.36141734       0.00000000
Si      -1.35839052      -1.35661491       1.35534004       0.00000000
Si       1.35674523       1.35897696       1.35537457       0.00000000
Si      -1.35650088       1.35725022      -1.36386897       0.00000000
Si       2.71473529      -2.71202436      -0.00189915       0.00000000
Si      -0.00030951      -2.71404432       2.71289001       0.00000000
Si       2.71496859       0.00073305       2.71264830       0.00000000
Si      -2.71541268       0.00081450       2.71282095       0.00000000
Si      -0.00070047       2.71609826       2.71347702       0.00000000
Si       2.71505430       2.71485882      -0.00217539       0.00000000
