10
Lattice="16.28999089631971 0.0 0.0 0.0 16.28999089631971 0.0 0.0 0.0 34.5300574570662" Properties=species:S:1:pos:R:3:initial_magmoms:R:1 pbc="T T T"
Si      -1.35852084       1.35257499       1.35741185       0.00000000
Si       1.35905415       1.35547461      -1.35837869       0.00000000
Si      -1.35622395      -1.35930276      -1.35813698       0.00000000
Si       1.35995436      -1.36135530       1.36379991       0.00000000
Si      -2.71536381       2.71096551       0.00010359       0.00000000
Si       0.00083079       2.71371852      -2.71565242       0.00000000
Si      -2.71430496      -0.00187335      -2.71568695       0.00000000
Si      -2.71246419      -2.71797021      -0.00055248       0.00000000
Si       2.71733231       2.71321353      -0.00058701       0.00000000
Si       2.71603889      -0.00125433      -2.71527259       0.00000000
