10
Lattice="16.28999089631971 0.0 0.0 0.0 16.28999089631971 0.0 0.0 0.0 34.5300574570662" Properties=species:S:1:pos:R:3:initial_magmoms:R:1 pbc="T T T"
Si      -0.68014008       1.73367207       1.38265333       0.00000000
Si      -0.27450279      -1.79839971       1.44463482       0.00000000
Si      -1.67775597      -0.04443912      -1.68827904       0.00000000
Si       2.37260985       0.38385756      -0.25869934       0.00000000
Si       2.24937991       0.72586611      -2.58985935       0.00000000
Si       0.86201793      -0.88969464       3.30532254       0.00000000
Si      -0.81911007      -1.87558173      -2.96271512       0.00000000
Si       0.71006481       1.46072986       3.25722214       0.00000000
Si      -1.42048800       2.01231577      -2.74900847       0.00000000
Si       0.50933943      -3.75969942       0.40217180       0.00000000
