10
Lattice="16.28999089631971 0.0 0.0 0.0 16.28999089631971 0.0 0.0 0.0 34.5300574570662" Properties=species:S:1:pos:R:3:initial_magmoms:R:1 pbc="T T T"
Si       0.27450279       1.79839971      -1.44463482       0.00000000
Si       0.78384222      -1.96129971      -1.04246302       0.00000000
Si       1.13652072       0.90870507       1.86068772       0.00000000
Si      -2.26468467      -0.48153240       0.58366189       0.00000000
Si      -1.83332547      -2.65049703       1.35889664       0.00000000
Si      -2.24319816       0.99272889       2.51026752       0.00000000
Si      -0.40563729       3.53207178      -0.06198149       0.00000000
Si      -0.24123861       0.27945495       3.61985701       0.00000000
Si       3.37085942       0.24469209       1.67705677       0.00000000
Si      -0.39433203      -2.07516681      -3.12959898       0.00000000
