10
Lattice="16.28999089631971 0.0 0.0 0.0 16.28999089631971 0.0 0.0 0.0 34.5300574570662" Properties=species:S:1:pos:R:3:initial_magmoms:R:1 pbc="T T T"
Si       0.56338965       1.98918819       1.03787052       0.00000000
Si      -1.52837830      -1.06517052       1.44239037       0.00000000
Si       2.08466388      -1.00429479      -0.47016153       0.00000000
Si      -1.26362344       0.17120790      -2.01486451       0.00000000
Si      -0.96055614      -3.10531383       0.39916769       0.00000000
Si      -1.45554897       3.02205564       0.29540481       0.00000000
Si       1.05995772       0.92035242       3.15622167       0.00000000
Si       1.36529748      -3.20188095       0.09951568       0.00000000
Si       2.28934773      -0.01019754      -2.67141939       0.00000000
Si      -1.67061280       2.46984093      -2.03095552       0.00000000
