10
Lattice="16.28999089631971 0.0 0.0 0.0 16.28999089631971 0.0 0.0 0.0 34.5300574570662" Properties=species:S:1:pos:R:3:initial_magmoms:R:1 pbc="T T T"
Si      -2.04975671      -1.10286558      -0.42475447       0.00000000
Si       0.47741429       1.54592100      -1.74231861       0.00000000
Si       1.74547839      -1.63605357      -0.43963694       0.00000000
Si      -2.34087530       0.70022565       1.42888911       0.00000000
Si      -0.90162122      -0.61942725       2.98930327       0.00000000
Si       0.57570000      -3.42195885      -1.66911485       0.00000000
Si      -2.60658149       2.99564955      -0.19008807       0.00000000
Si      -0.87205487       3.47108949      -1.74345811       0.00000000
Si      -0.07716247       0.73295226      -3.91467480       0.00000000
Si       2.89154505      -2.12379246       1.77498407       0.00000000
