10
Lattice="16.28999089631971 0.0 0.0 0.0 16.28999089631971 0.0 0.0 0.0 34.5300574570662" Properties=species:S:1:pos:R:3:initial_magmoms:R:1 pbc="T T T"
Si       1.35379511      -1.35185823       1.35927647       0.00000000
Si      -1.35660744      -1.35560493      -1.35748091       0.00000000
Si       1.35819341       1.36001952      -1.35723920       0.00000000
Si      -1.35546714       1.35780408       1.36431786       0.00000000
Si       2.68147898       0.01355328       2.71969244       0.00000000
Si      -2.71362960      -2.71194291      -0.00037983       0.00000000
Si       2.71443365      -2.71350675       0.00006906       0.00000000
Si       0.00079332      -2.71252935      -2.71544524       0.00000000
Si       2.71552508       0.00228060      -2.71458198       0.00000000
Si      -2.71473732       0.00219915      -2.71551430       0.00000000
