10
Lattice="16.28999089631971 0.0 0.0 0.0 16.28999089631971 0.0 0.0 0.0 34.5300574570662" Properties=species:S:1:pos:R:3:initial_magmoms:R:1 pbc="T T T"
Si      -0.40698936       2.29863303      -0.01609102       0.00000000
Si       1.49692882      -0.82357353      -1.61500622       0.00000000
Si      -1.90589646      -1.32331815       0.41546588       0.00000000
Si       1.26362344      -0.17120790       2.01486451       0.00000000
Si      -0.66327178      -3.33565443       0.20497054       0.00000000
Si      -2.37713358      -0.36168687       2.65394717       0.00000000
Si       3.55297117      -0.18140544      -0.65655488       0.00000000
Si       1.13081107      -3.14232471      -1.39788110       0.00000000
Si      -0.19192552       2.85084774       2.31026932       0.00000000
Si      -0.26475485      -1.23637842       3.45725487       0.00000000
