10
Lattice="16.28999089631971 0.0 0.0 0.0 16.28999089631971 0.0 0.0 0.0 34.5300574570662" Properties=species:S:1:pos:R:3:initial_magmoms:R:1 pbc="T T T"
Si       1.35638685      -1.35718506      -1.35651407       0.00000000
Si      -1.35708569       1.35645757      -1.35717014       0.00000000
Si      -1.35602195      -1.35788553       1.35789527       0.00000000
Si       1.35778779       1.35764674       1.35817151       0.00000000
Si       0.00042354       2.71426328      -2.71354608       0.00000000
Si       2.71430496      -0.00066263      -2.71402950       0.00000000
Si      -2.71421441      -0.00149868      -2.71472010       0.00000000
Si      -2.71452160       2.71489859       0.00120855       0.00000000
Si      -0.00030951      -2.71477737      -2.71482369       0.00000000
Si      -2.71430012      -2.71562445       0.00010359       0.00000000
