10
Lattice="16.28999089631971 0.0 0.0 0.0 16.28999089631971 0.0 0.0 0.0 34.5300574570662" Properties=species:S:1:pos:R:3:initial_magmoms:R:1 pbc="T T T"
Si       1.35602195       1.35788553      -1.35789527       0.00000000
Si       1.35830255      -1.36001952       1.35447679       0.00000000
Si      -1.35827816      -1.35773892      -1.35779168       0.00000000
Si      -1.35988661       1.36032903       1.36134828       0.00000000
Si       2.71240880       0.00070047      -2.71440933       0.00000000
Si       2.71301153      -2.71393029      -0.00024171       0.00000000
Si      -0.00129343      -2.71446786      -2.71468557       0.00000000
Si       2.71380974       2.71553227       0.00027624       0.00000000
Si      -0.00106374       2.71434310      -2.71506541       0.00000000
Si      -2.71645265       2.71299917       0.00072513       0.00000000
