10
Lattice="16.2900001489832 0.0 0.0 0.0 16.2900001489832 0.0 0.0 0.0 29.18935068521919" Properties=species:S:1:pos:R:3:initial_magmoms:R:1 pbc="T T T"
Si       0.96012446       1.26465787      -1.72684199       0.00000000
Si       1.62358685      -1.54228834       0.77138697       0.00000000
Si      -0.74217241       1.41651325       1.84500048       0.00000000
Si      -2.13728060      -0.69999760      -0.95457934       0.00000000
H       -2.07795242       0.68794300       2.03537342       0.00000000
Si       0.37794429      -2.24774309       2.70842147       0.00000000
Si      -1.07523775       3.45859346       0.57062262       0.00000000
Si      -0.37054863       3.24103725      -1.73332202       0.00000000
Si       2.83748997       2.44253891      -0.99054062       0.00000000
Si      -3.59942214      -1.16199829       0.92825054       0.00000000
