10
Lattice="16.2900001489832 0.0 0.0 0.0 16.2900001489832 0.0 0.0 0.0 29.18935068521919" Properties=species:S:1:pos:R:3:initial_magmoms:R:1 pbc="T T T"
Si      -1.31981581       1.32035338      -1.46270755       0.00000000
Si       1.41978754      -1.33614491      -1.36255889       0.00000000
Si       0.95329081       1.77121172       1.27790977       0.00000000
Si      -1.32941062      -1.42423471       1.38608551       0.00000000
Si      -2.62544303       2.67903713      -0.03674939       0.00000000
Si      -0.75657277       3.54305874       1.10578017       0.00000000
Si      -2.64577295      -2.72148887      -0.06920795       0.00000000
Si       1.13104729       0.90495838       3.55050505       0.00000000
Si       0.08641845      -2.73800368      -2.73813623       0.00000000
Si      -2.69887835      -0.05247009       2.78002295       0.00000000
