10
Lattice="16.2900001489832 0.0 0.0 0.0 16.2900001489832 0.0 0.0 0.0 29.18935068521919" Properties=species:S:1:pos:R:3:initial_magmoms:R:1 pbc="T T T"
Si      -0.95329081      -1.77121172      -1.27790977       0.00000000
Si       1.82171072       0.95123827      -1.24384580       0.00000000
Si       0.17775648      -0.86625334       2.27259528       0.00000000
Si      -1.70986358       1.77184703      -0.17212960       0.00000000
H       -1.97185565       2.34075899       1.18441628       0.00000000
H       -0.78211549       2.05799717       2.51784420       0.00000000
H        2.52835463      -2.38879820       0.85443067       0.00000000
Si      -2.27310662      -0.45085833      -2.74061733       0.00000000
Si       0.56407384       2.30083220      -2.75950284       0.00000000
Si      -2.09504063      -0.92408284       3.01137774       0.00000000
