10
Lattice="16.2900001489832 0.0 0.0 0.0 16.2900001489832 0.0 0.0 0.0 29.18935068521919" Properties=species:S:1:pos:R:3:initial_magmoms:R:1 pbc="T T T"
Si       1.33582888      -1.48058182      -1.24387499       0.00000000
Si      -1.41499828      -1.34798122       1.35038693       0.00000000
Si       1.81885997       1.20806641       0.94535550       0.00000000
Si      -1.31649265       1.79636348      -0.96666373       0.00000000
H       -2.07384734       1.46709370       1.49650882       0.00000000
H        2.07327719      -0.64896103      -2.26745795       0.00000000
H        1.78183280       1.68818159      -2.11727874       0.00000000
Si      -2.96973219       0.31587939       1.95314702       0.00000000
Si       2.94669813       1.65481967      -1.15397179       0.00000000
Si      -1.08014104       3.46131552       0.71478882       0.00000000
