10
Lattice="16.2900001489832 0.0 0.0 0.0 16.2900001489832 0.0 0.0 0.0 29.18935068521919" Properties=species:S:1:pos:R:3:initial_magmoms:R:1 pbc="T T T"
Si      -1.26816022       0.15780123      -1.94667545       0.00000000
Si       0.79540813       2.00181296       1.04022118       0.00000000
Si      -1.86851189      -0.71076529       1.31365826       0.00000000
Si       1.80910226      -1.71281207       0.00894916       0.00000000
Si       2.11476782       0.80777224       2.62135869       0.00000000
Si      -0.61833583      -1.99137107       2.81250223       0.00000000
Si       0.61291126      -3.28370565       1.28620860       0.00000000
Si      -2.89880553      -2.33934176      -0.05227141       0.00000000
Si       3.44092044      -0.61879195       1.31042408       0.00000000
Si      -2.53690688       2.18968553      -1.99644329       0.00000000
