10
Lattice="16.2900001489832 0.0 0.0 0.0 16.2900001489832 0.0 0.0 0.0 29.18935068521919" Properties=species:S:1:pos:R:3:initial_magmoms:R:1 pbc="T T T"
Si      -1.33095817      -1.34711785       1.37382014       0.00000000
Si      -1.26226324       1.62702892      -1.11497482       0.00000000
Si       1.40706505       1.39971826       1.30367813       0.00000000
Si       1.19734759      -1.34195392      -1.58649959       0.00000000
Si       0.53496360       2.95743324      -1.97518498       0.00000000
Si       2.49952133       2.78453118      -0.28506320       0.00000000
Si      -2.83209798       0.49818078      -2.49609813       0.00000000
Si      -2.77739616      -2.60636744      -0.01517846       0.00000000
Si       0.11546352      -2.72012051       2.66650264       0.00000000
Si       2.71508690      -2.68135031      -0.28439184       0.00000000
