10
Lattice="16.2900001489832 0.0 0.0 0.0 16.2900001489832 0.0 0.0 0.0 29.18935068521919" Properties=species:S:1:pos:R:3:initial_magmoms:R:1 pbc="T T T"
Si       1.55712853       0.89959897       1.50926457       0.00000000
Si      -1.29999577       1.39918069      -1.41086727       0.00000000
Si      -1.44091079      -1.16952427       1.49466989       0.00000000
Si       1.36946773      -1.37176462      -1.39393744       0.00000000
Si       0.26891532      -2.43217847       2.58921216       0.00000000
Si      -2.73243575      -2.48287295      -0.09533242       0.00000000
Si       2.08064027      -0.95614156       2.90641284       0.00000000
Si       0.42958359       2.57496032       2.66700178       0.00000000
H       -0.83971204       1.89550442       3.22209566       0.00000000
Si       2.69887835       0.05247009      -2.78002295       0.00000000
