10
Lattice="16.2900001489832 0.0 0.0 0.0 16.2900001489832 0.0 0.0 0.0 29.18935068521919" Properties=species:S:1:pos:R:3:initial_magmoms:R:1 pbc="T T T"
Si       1.39279501      -1.30798927      -1.38824552       0.00000000
Si       1.47558079       1.33512841       1.28625793       0.00000000
Si      -1.38585547       1.36660069      -1.37528545       0.00000000
Si      -1.39336516      -1.34188876       1.41372782       0.00000000
Si       0.10632483       2.68154579       2.62622426       0.00000000
Si      -2.63770940      -2.69925302      -0.06150196       0.00000000
Si       2.75880927      -2.64653858       0.06941228       0.00000000
Si       2.73018774       2.71235018      -0.15266030       0.00000000
Si       0.04667085      -2.61534323      -2.83711732       0.00000000
Si      -2.77102677       2.70324407       0.06550090       0.00000000
