10
Lattice="16.2900001489832 0.0 0.0 0.0 16.2900001489832 0.0 0.0 0.0 29.18935068521919" Properties=species:S:1:pos:R:3:initial_magmoms:R:1 pbc="T T T"
Si       1.41635035       1.34561917       1.30202018       0.00000000
Si      -1.27878130       1.39201309      -1.42995710       0.00000000
Si       1.38517129      -1.33664338      -1.44078635       0.00000000
Si      -1.38170152      -1.20044269       1.56341081       0.00000000
Si      -2.55112805      -2.54009972      -0.02802178       0.00000000
Si       0.02217069       2.64513830       2.71761612       0.00000000
Si       0.15535773      -2.57223989       2.81674315       0.00000000
Si      -2.64844451       2.78910867      -0.10627843       0.00000000
Si       2.87735160      -0.02169828       2.56072336       0.00000000
Si       2.74954026       2.70841094      -0.11594010       0.00000000
