10
Lattice="16.2900001489832 0.0 0.0 0.0 16.2900001489832 0.0 0.0 0.0 29.18935068521919" Properties=species:S:1:pos:R:3:initial_magmoms:R:1 pbc="T T T"
Si       1.16486533      -0.03336192       0.96330695       0.00000000
H        0.29144439      -2.33714261      -0.15017921       0.00000000
Si       1.95944267       2.17238555       0.60877310       0.00000000
Si       2.56966607      -1.48641364      -0.35535116       0.00000000
Si      -0.96389560       1.67150063      -2.34994706       0.00000000
Si       0.03702717      -0.48011517       3.06263424       0.00000000
Si      -2.82126513       0.84678679      -1.09063090       0.00000000
Si       0.44911530       3.02840877      -1.05198420       0.00000000
Si      -1.78183280      -1.68818159       2.11727874       0.00000000
Si      -3.09832545       0.10818189       1.15061501       0.00000000
