10
Lattice="16.2900001489832 0.0 0.0 0.0 16.2900001489832 0.0 0.0 0.0 29.18935068521919" Properties=species:S:1:pos:R:3:initial_magmoms:R:1 pbc="T T T"
Si       2.00676512       1.16155846       0.23255156       0.00000000
Si       0.67717531      -2.21980574      -0.29770219       0.00000000
Si      -1.60611256       0.60936004       1.60342941       0.00000000
Si      -1.04778910       0.58406167      -2.02649986       0.00000000
Si       1.19091304       2.72303642      -1.24113119       0.00000000
Si       0.93768499       1.35837424      -3.15764558       0.00000000
Si       2.83345005      -2.30163041       0.65214847       0.00000000
Si      -3.13121496      -1.20197395       1.79494074       0.00000000
Si      -2.23536269      -1.30539916      -2.81522531       0.00000000
Si      -1.11211831      -3.68689944       0.00274380       0.00000000
