10
Lattice="16.2900001489832 0.0 0.0 0.0 16.2900001489832 0.0 0.0 0.0 29.18935068521919" Properties=species:S:1:pos:R:3:initial_magmoms:R:1 pbc="T T T"
Si       0.13901886       1.92733508       1.36197510       0.00000000
Si       1.27389430      -1.84557557       0.81592992       0.00000000
Si      -2.32501471      -0.33221826       0.50593902       0.00000000
Si       0.22744098      -0.08770536      -2.41620688       0.00000000
Si      -3.13924593      -1.72871111      -1.19419472       0.00000000
Si      -1.89360337      -1.02325636      -3.13122922       0.00000000
Si      -0.25120809      -3.65690955       1.00744125       0.00000000
Si      -1.80357995       3.19097531       1.06068263       0.00000000
Si       1.83221777      -1.87087394      -2.81399935       0.00000000
Si       2.88000687      -2.45493560      -0.78749949       0.00000000
