10
Lattice="16.2900001489832 0.0 0.0 0.0 16.2900001489832 0.0 0.0 0.0 29.18935068521919" Properties=species:S:1:pos:R:3:initial_magmoms:R:1 pbc="T T T"
Si       1.41264617       1.93264562      -0.05102298       0.00000000
Si       1.02491794      -1.76961530       1.26147617       0.00000000
Si      -0.71066755      -0.92481589      -2.10887221       0.00000000
Si      -2.00145458       0.97130103       0.98931466       0.00000000
H        1.98209554       0.45283920      -1.85358215       0.00000000
H        0.92453896       2.71637381       1.15411774       0.00000000
H        0.40588164       1.55372392       3.14958932       0.00000000
Si      -1.07054623      -3.22010949      -1.42683384       0.00000000
Si      -2.37557072       0.64678631      -2.75299361       0.00000000
Si       0.72123976       3.14297634      -1.91178571       0.00000000
