10
Lattice="16.2900001489832 0.0 0.0 0.0 16.2900001489832 0.0 0.0 0.0 29.18935068521919" Properties=species:S:1:pos:R:3:initial_magmoms:R:1 pbc="T T T"
Si       1.39230631       1.38090983      -1.27347591       0.00000000
Si       1.40794471      -1.38813119       1.26576700       0.00000000
Si      -1.19575117       1.41443465       1.48725580       0.00000000
Si      -1.33954300      -1.35443695      -1.45634427       0.00000000
Si      -2.51727743       2.79284559       0.05797005       0.00000000
Si      -2.66344760      -2.70118502      -0.03923049       0.00000000
Si       0.05064561      -2.74132358       2.65229035       0.00000000
Si      -2.70115895       0.09768136      -2.71488399       0.00000000
Si      -2.63787230       0.05782950       2.78661974       0.00000000
Si       2.74872576      -2.67572375      -0.18745401       0.00000000
