10
Lattice="16.2900001489832 0.0 0.0 0.0 16.2900001489832 0.0 0.0 0.0 29.18935068521919" Properties=species:S:1:pos:R:3:initial_magmoms:R:1 pbc="T T T"
Si      -1.66729781      -1.54155529      -0.48425133       0.00000000
Si       0.72298279      -0.93307492       2.02337660       0.00000000
Si      -1.02110608       2.12081141       0.16582470       0.00000000
Si       2.00633506      -0.21045051      -1.23932145       0.00000000
Si      -2.69177591       1.44024778       1.67313358       0.00000000
Si      -3.53782965      -0.34919244       0.36641392       0.00000000
Si       1.14717439      -3.11046150       1.33876957       0.00000000
Si       2.76098398       0.13660794       2.34002268       0.00000000
Si       0.77038669       3.52399944       0.77941404       0.00000000
Si      -0.76087333      -3.63915345       0.12802449       0.00000000
