10
Lattice="16.2900001489832 0.0 0.0 0.0 16.2900001489832 0.0 0.0 0.0 29.18935068521919" Properties=species:S:1:pos:R:3:initial_magmoms:R:1 pbc="T T T"
Si       0.52977508       2.22808106       0.31232605       0.00000000
Si       1.45179071      -0.84756871      -1.64187179       0.00000000
Si      -2.17088215       0.10134009      -0.99503578       0.00000000
Si       0.03945813      -1.35019666       2.02702527       0.00000000
H        2.25387285       0.13590747      -2.45292708       0.00000000
H        1.52766954      -2.97595497       0.22227691       0.00000000
H       -0.89706929       1.51826059       3.03038001       0.00000000
Si      -2.10034645      -2.10885455      -1.91657277       0.00000000
Si       2.79696517      -2.29649906      -0.33281698       0.00000000
Si      -0.09732803      -1.87085765      -3.13779682       0.00000000
