10
Lattice="16.2900001489832 0.0 0.0 0.0 16.2900001489832 0.0 0.0 0.0 29.18935068521919" Properties=species:S:1:pos:R:3:initial_magmoms:R:1 pbc="T T T"
Si       1.35852085       1.47747043      -1.33502166       0.00000000
Si       1.30326517      -1.30764718       1.55542752       0.00000000
Si      -1.32765130       1.34675947       1.50055155       0.00000000
Si      -1.43073442      -1.36497169      -1.40854963       0.00000000
Si      -2.61490340      -2.76560220       0.14923639       0.00000000
Si      -2.73875628       2.71609688       0.17952034       0.00000000
Si       2.65111607       2.84172537       0.15363523       0.00000000
Si      -0.08236224       2.86866903      -2.65023542       0.00000000
Si       2.76460851      -2.74843254       0.41981292       0.00000000
H       -0.31037337       0.40869981      -3.94621340       0.00000000
