10
Lattice="16.2900001489832 0.0 0.0 0.0 16.2900001489832 0.0 0.0 0.0 29.18935068521919" Properties=species:S:1:pos:R:3:initial_magmoms:R:1 pbc="T T T"
Si      -1.36925596       1.34641738       1.33996633       0.00000000
Si       1.25460694       1.37722177      -1.43891823       0.00000000
Si      -1.47558079      -1.33512841      -1.28625793       0.00000000
Si       1.27001728      -1.33304329       1.53238253       0.00000000
Si      -0.58735225      -2.15775713       2.79169869       0.00000000
Si      -2.21418569      -0.30107178       2.81116799       0.00000000
Si      -0.08278578      -2.64311768      -2.67450345       0.00000000
Si       2.68858307      -2.65109978       0.17326799       0.00000000
Si       2.67090842       2.68400558      -0.09267619       0.00000000
Si      -0.02322954       2.74098801       2.61953990       0.00000000
