10
Lattice="16.2900001489832 0.0 0.0 0.0 16.2900001489832 0.0 0.0 0.0 29.18935068521919" Properties=species:S:1:pos:R:3:initial_magmoms:R:1 pbc="T T T"
Si      -1.79735228       1.23804001      -0.93861276       0.00000000
Si      -0.85842925      -2.22482306       0.06993768       0.00000000
H        1.93978552      -1.44686152       0.35675224       0.00000000
Si      -0.07716899       1.23804001       2.13896643       0.00000000
Si       1.85582686       0.13339881      -1.73466473       0.00000000
Si      -0.64309174       2.92690578      -2.04097778       0.00000000
Si       3.49209222       1.26384337      -0.45325224       0.00000000
Si       0.76098736       1.50350185      -3.35017854       0.00000000
Si       3.00981047      -1.86678515       1.35864752       0.00000000
Si       2.35825934       2.97760026       0.64356680       0.00000000
