10
Lattice="16.2900001489832 0.0 0.0 0.0 16.2900001489832 0.0 0.0 0.0 29.18935068521919" Properties=species:S:1:pos:R:3:initial_magmoms:R:1 pbc="T T T"
H        0.73744831       0.83162080      -1.02358296       0.00000000
Si      -1.33582888       1.48058182       1.24387499       0.00000000
Si      -1.32748840      -1.44594928      -1.29854664       0.00000000
Si       1.56954151      -1.05759568       1.47957900       0.00000000
H        0.44600391       3.16876341      -0.87340375       0.00000000
Si       0.48303108       2.68864823       2.18923049       0.00000000
Si       1.61086924       3.13540149       0.08990320       0.00000000
Si       1.20163186      -3.26757855       0.95831557       0.00000000
Si      -0.45670644      -3.56345382      -0.64671925       0.00000000
Si       3.01566999       1.68234977      -1.22875491       0.00000000
