10
Lattice="16.2900001489832 0.0 0.0 0.0 16.2900001489832 0.0 0.0 0.0 29.18935068521919" Properties=species:S:1:pos:R:3:initial_magmoms:R:1 pbc="T T T"
Si      -0.80208214      -0.98347618       0.81105530       0.00000000
H       -0.27100044       0.88506829      -1.42922737       0.00000000
H        1.07632918       1.30101715       1.22481434       0.00000000
H        1.79382224      -0.84292606      -0.86458857       0.00000000
Si      -1.16290890       1.90829207      -2.10688733       0.00000000
Si      -2.35120088      -2.00676512      -0.68486974       0.00000000
H        2.98356240      -1.12568788       0.46883935       0.00000000
Si       0.54309231      -2.43240653       2.12011011       0.00000000
Si      -2.25387285      -0.13590747       2.45292708       0.00000000
Si       2.05581431      -1.41183802      -2.22113445       0.00000000
