10
Lattice="16.2900001489832 0.0 0.0 0.0 16.2900001489832 0.0 0.0 0.0 29.18935068521919" Properties=species:S:1:pos:R:3:initial_magmoms:R:1 pbc="T T T"
Si      -2.19576170      -0.29504448      -0.69613682       0.00000000
Si      -0.14258637      -0.09550827       2.31994040       0.00000000
Si       1.47931120      -1.81824095      -0.00697625       0.00000000
Si       0.25234839       1.86961961      -1.52712845       0.00000000
H       -1.37963269       0.85064752       2.66913261       0.00000000
Si      -2.99402058       1.76699261       0.23004127       0.00000000
Si      -1.81802918      -0.78734458      -2.95597635       0.00000000
Si      -0.09366750       0.68199715      -3.60438859       0.00000000
Si       3.14998104      -1.13767732      -1.51428513       0.00000000
Si      -1.77143978       3.18518373      -1.24498419       0.00000000
