10
Lattice="16.2900001489832 0.0 0.0 0.0 16.2900001489832 0.0 0.0 0.0 29.18935068521919" Properties=species:S:1:pos:R:3:initial_magmoms:R:1 pbc="T T T"
Si      -1.47931120       1.81824095       0.00697625       0.00000000
Si       1.67066984       0.68056363      -1.50730888       0.00000000
Si      -0.84605374      -1.78944023      -1.30671966       0.00000000
Si       0.60782878      -0.66033145       2.27647746       0.00000000
H       -1.51756012      -2.70927137      -0.31244281       0.00000000
Si      -1.62189757       1.72273268       2.32691666       0.00000000
Si       2.69177591      -1.44024778      -1.67313358       0.00000000
Si       0.51818490       1.32033709      -3.49632961       0.00000000
Si       1.02447811      -2.98180308      -2.15738491       0.00000000
Si      -2.54684378      -1.20954880      -2.86668613       0.00000000
