10
Lattice="16.2900001489832 0.0 0.0 0.0 16.2900001489832 0.0 0.0 0.0 29.18935068521919" Properties=species:S:1:pos:R:3:initial_magmoms:R:1 pbc="T T T"
Si      -0.81585208       1.56147796      -1.47368275       0.00000000
Si      -2.00676512      -1.16155846      -0.23255156       0.00000000
Si       0.87327433       0.50933943       2.13058909       0.00000000
Si       2.55104660      -1.99384715      -0.22881532       0.00000000
Si       2.89706250      -0.80622469       1.84844482       0.00000000
Si      -1.06908013       0.19681578      -3.39019714       0.00000000
Si       0.82668493      -3.46318887       0.41959692       0.00000000
Si       0.76691692       3.23641578      -1.50363102       0.00000000
Si      -1.32958981      -3.38136420      -0.53025374       0.00000000
Si      -0.34930647      -0.90885169       3.60561454       0.00000000
