10
Lattice="16.2900001489832 0.0 0.0 0.0 16.2900001489832 0.0 0.0 0.0 29.18935068521919" Properties=species:S:1:pos:R:3:initial_magmoms:R:1 pbc="T T T"
Si       1.62147403      -1.73335376       0.10902222       0.00000000
Si      -1.73793125      -0.99733897       1.27939843       0.00000000
Si       0.97917562       1.77505616       1.27291839       0.00000000
Si      -0.60782878       0.66033145      -2.27647746       0.00000000
Si      -2.22972635       2.38306412       0.05043920       0.00000000
Si      -3.45931185       0.56378062       1.04646741       0.00000000
Si       3.38584395      -0.63607564       1.31956298       0.00000000
Si       3.28668672       1.69450211       0.70781256       0.00000000
Si      -1.82855252      -3.27140670       0.62065316       0.00000000
Si      -0.52111710       3.59945472       1.12332297       0.00000000
