10
Lattice="16.2900001489832 0.0 0.0 0.0 16.2900001489832 0.0 0.0 0.0 29.18935068521919" Properties=species:S:1:pos:R:3:initial_magmoms:R:1 pbc="T T T"
Si       0.60188293      -1.36816453       0.33982242       0.00000000
H       -0.27117963       1.62230482      -1.77903255       0.00000000
Si       1.54953739      -1.85002274      -1.81896358       0.00000000
Si      -1.37889964      -2.63055809       0.61443583       0.00000000
Si      -0.74762956       2.78609664      -0.97206376       0.00000000
H        1.53212338       0.67601872      -2.54630382       0.00000000
Si       2.25510617       1.35307999       1.60313752       0.00000000
Si       1.89522749      -0.94221361       2.28517589       0.00000000
Si       0.59020300       2.92468219       0.95901612       0.00000000
Si      -3.40268781      -1.31499397       0.89658010       0.00000000
