10
Lattice="16.2900001489832 0.0 0.0 0.0 16.2900001489832 0.0 0.0 0.0 29.18935068521919" Properties=species:S:1:pos:R:3:initial_magmoms:R:1 pbc="T T T"
Si       0.48277044      -0.57291931      -2.19830838       0.00000000
Si      -1.78929362      -1.46709370       0.30044599       0.00000000
Si      -0.67717531       2.21980574       0.29770219       0.00000000
Si       2.15627474      -0.08182467       0.94985066       0.00000000
H        1.37865529       0.57829501      -2.65494658       0.00000000
Si      -0.70079581      -3.50974569      -0.19119025       0.00000000
Si       1.32958981       3.38136420       0.53025374       0.00000000
Si       1.77854222       0.41047542       3.20969019       0.00000000
Si      -1.72496441       2.80386741      -1.72879767       0.00000000
Si      -2.75703366      -1.13300209       2.41892149       0.00000000
