10
Lattice="16.2900001489832 0.0 0.0 0.0 16.2900001489832 0.0 0.0 0.0 29.18935068521919" Properties=species:S:1:pos:R:3:initial_magmoms:R:1 pbc="T T T"
Si      -0.82854199       0.50357277       2.08943210       0.00000000
Si       1.52510239       1.81133399      -0.19151133       0.00000000
Si      -2.18345298       0.01571985      -0.99845093       0.00000000
Si       1.05135661      -2.15083388       0.32627856       0.00000000
Si      -2.04247443      -1.84037906      -2.35633952       0.00000000
Si       1.10724760       0.81371809       3.35192990       0.00000000
Si       2.01909665      -2.48492549      -1.79219694       0.00000000
Si      -3.56583216      -0.04680117       0.91248829       0.00000000
Si      -2.35500460      -1.19545795       2.57899589       0.00000000
Si       0.16022844      -1.87854653      -3.20142960       0.00000000
