10
Lattice="16.2900001489832 0.0 0.0 0.0 16.2900001489832 0.0 0.0 0.0 29.18935068521919" Properties=species:S:1:pos:R:3:initial_magmoms:R:1 pbc="T T T"
Si       1.43376436       1.27607716       1.34005390       0.00000000
Si      -1.29841075       1.33996654      -1.44431826       0.00000000
Si       1.40170564      -1.27741294      -1.40999158       0.00000000
Si      -1.20573694      -1.37064061       1.56291459       0.00000000
Si       0.75724066      -2.16987689       2.74155138       0.00000000
Si       2.38523069      -0.40430151       2.71242041       0.00000000
Si      -2.63971307       2.65768094      -0.04927162       0.00000000
Si       0.07698654       2.60521085       2.70153278       0.00000000
Si      -2.61109154      -2.70120782       0.17280096       0.00000000
Si       0.02407662      -2.66927942      -2.71898802       0.00000000
