10
Lattice="16.2900001489832 0.0 0.0 0.0 16.2900001489832 0.0 0.0 0.0 29.18935068521919" Properties=species:S:1:pos:R:3:initial_magmoms:R:1 pbc="T T T"
Si      -2.24997482      -0.01911306      -0.49656923       0.00000000
Si       0.60649300       1.15067185       1.97719905       0.00000000
Si       1.17188632      -1.82342605      -1.05090419       0.00000000
Si       1.09656136       1.63567403      -1.42452788       0.00000000
Si       2.73676890      -0.12497525      -1.50614131       0.00000000
Si       1.98656552       2.59582293       0.63013970       0.00000000
Si      -2.33132708      -1.63796440      -2.27134013       0.00000000
Si      -2.65502567       2.04383627      -1.62027167       0.00000000
Si       1.82200394      -0.45653866       3.27017053       0.00000000
Si      -0.15170877      -2.38303643      -3.01161126       0.00000000
