10
Lattice="16.2900001489832 0.0 0.0 0.0 16.2900001489832 0.0 0.0 0.0 29.18935068521919" Properties=species:S:1:pos:R:3:initial_magmoms:R:1 pbc="T T T"
Si       1.21266019      -0.39436298      -1.93642152       0.00000000
Si      -1.56488257      -1.69845080       0.45523711       0.00000000
Si       1.58677633      -0.06984826       1.80588675       0.00000000
Si      -1.64020754       1.76064928       0.08161342       0.00000000
Si      -2.73676890       0.12497525       1.50614131       0.00000000
Si      -0.75020338       2.72079818       2.13628101       0.00000000
Si       2.40142295       1.57313509      -2.30595870       0.00000000
Si       2.87756337      -1.96596518      -1.29230012       0.00000000
Si       1.56949264       2.25387790       2.56548122       0.00000000
Si       0.53636454      -1.58344340       3.39034308       0.00000000
