10
Lattice="16.2900001489832 0.0 0.0 0.0 16.2900001489832 0.0 0.0 0.0 29.18935068521919" Properties=species:S:1:pos:R:3:initial_magmoms:R:1 pbc="T T T"
Si      -2.26087283       0.44998682      -0.42096882       0.00000000
Si       0.35847774       2.28921906       0.65731499       0.00000000
Si       0.70468912      -0.21755621      -2.30394464       0.00000000
Si       0.33306534      -2.04208021       1.27437786       0.00000000
H       -1.00271467      -2.77065047       1.46475081       0.00000000
H       -0.11161908       1.16136461       3.25668505       0.00000000
H       -0.89816545       1.73775368      -2.98262623       0.00000000
Si      -2.15042663       2.00067429      -2.19022293       0.00000000
Si       1.07523775      -3.45859346      -0.57062262       0.00000000
Si       1.99091169       1.75689444      -2.66408285       0.00000000
