10
Lattice="16.2900001489832 0.0 0.0 0.0 16.2900001489832 0.0 0.0 0.0 29.18935068521919" Properties=species:S:1:pos:R:3:initial_magmoms:R:1 pbc="T T T"
Si      -2.25473150       0.62354863      -0.08371506       0.00000000
Si       1.22258080       1.41819112      -1.47502546       0.00000000
Si       0.79825888      -2.06203709      -0.92617810       0.00000000
Si       0.35046306       0.16158051       2.39749651       0.00000000
H        1.61438788      -0.91634509       2.43909133       0.00000000
Si       2.99402058      -1.76699261      -0.23004127       0.00000000
Si      -2.16547859       2.76227904       0.90282662       0.00000000
Si       3.24636897       0.10262700      -1.75716972       0.00000000
Si       0.34930647       0.90885169      -3.60561454       0.00000000
Si      -3.68142600      -0.64096264       1.30870454       0.00000000
