10
Lattice="16.2900001489832 0.0 0.0 0.0 16.2900001489832 0.0 0.0 0.0 29.18935068521919" Properties=species:S:1:pos:R:3:initial_magmoms:R:1 pbc="T T T"
Si      -1.58677633       0.06984826      -1.80588675       0.00000000
Si      -1.05041179      -1.51359514       1.58445633       0.00000000
Si       2.00145458      -0.97130103      -0.98931466       0.00000000
Si      -0.01728369       2.32372617       0.75959447       0.00000000
H        2.40733622       0.58242289       2.16027465       0.00000000
H        2.92599354       1.74507278       0.16480307       0.00000000
Si      -2.33697971       2.79064644       0.33039426       0.00000000
Si       3.41410075       0.96134458      -1.04033765       0.00000000
Si      -0.37411614      -0.32451472      -3.74230827       0.00000000
Si      -2.12547035      -3.13645382       0.20315788       0.00000000
