10
Lattice="16.2900001489832 0.0 0.0 0.0 16.2900001489832 0.0 0.0 0.0 29.18935068521919" Properties=species:S:1:pos:R:3:initial_magmoms:R:1 pbc="T T T"
Si      -1.50029272       1.82439857      -0.14959542       0.00000000
Si       0.35404686      -0.60659074       2.26044754       0.00000000
Si       2.30751110      -0.08055405      -0.56510583       0.00000000
Si      -0.97917562      -1.77505616      -1.27291839       0.00000000
Si       2.40666833      -2.41113179       0.04664458       0.00000000
Si      -3.20890197       0.60800797      -1.22247920       0.00000000
Si       0.64229842      -3.50840991      -1.16389617       0.00000000
Si       1.28215333       1.25038783       3.38564360       0.00000000
Si       2.05425047      -2.30824415       2.32272536       0.00000000
Si      -2.71710686      -2.77239513       0.00648004       0.00000000
