10
Lattice="16.2900001489832 0.0 0.0 0.0 16.2900001489832 0.0 0.0 0.0 29.18935068521919" Properties=species:S:1:pos:R:3:initial_magmoms:R:1 pbc="T T T"
Si       1.19096191      -2.07060563       0.25850089       0.00000000
Si       0.07820829       1.21412629       2.11333818       0.00000000
Si      -2.37294803      -0.50482222      -0.53115861       0.00000000
Si       1.37834578       1.08739009      -1.77821524       0.00000000
Si      -0.41585112       3.31856625       0.99582389       0.00000000
Si       0.72049042      -3.02068731      -1.86590005       0.00000000
Si      -0.48987288      -1.54055020      -3.29524418       0.00000000
Si      -3.01819494      -1.55903609       1.53290794       0.00000000
Si       3.48190608      -1.64667304      -0.10032380       0.00000000
Si       3.55540656       0.21134646      -1.57012436       0.00000000
