10
Lattice="16.2900001489832 0.0 0.0 0.0 16.2900001489832 0.0 0.0 0.0 29.18935068521919" Properties=species:S:1:pos:R:3:initial_magmoms:R:1 pbc="T T T"
Si      -1.58276899      -1.67493782       0.02994827       0.00000000
Si       0.47047149       0.95008168       2.12440094       0.00000000
Si       1.69315004      -0.94465711      -1.38760335       0.00000000
Si      -1.21036330       1.48013711      -1.42934412       0.00000000
H       -1.32177061       0.69643009      -2.71615665       0.00000000
H        3.23786559       0.21022245       0.95860747       0.00000000
Si       2.76141567       1.37401427       1.76557625       0.00000000
Si      -0.72049042       3.02068731       1.86590005       0.00000000
Si      -0.76691692      -3.23641578       1.50363102       0.00000000
Si       2.44846847       0.87878035      -2.62330532       0.00000000
