10
Lattice="16.2900001489832 0.0 0.0 0.0 16.2900001489832 0.0 0.0 0.0 29.18935068521919" Properties=species:S:1:pos:R:3:initial_magmoms:R:1 pbc="T T T"
Si       1.86887027       0.86402161       1.14252956       0.00000000
Si       1.30562722      -1.35868375      -1.42595816       0.00000000
Si      -1.37343109      -1.33232653       1.40590508       0.00000000
Si      -1.24598464       1.39870828      -1.46548054       0.00000000
H        1.60687819       1.43293357       2.49907545       0.00000000
Si      -2.53814492       0.26909451       2.67879428       0.00000000
H       -0.45794448       3.16092792       1.93443665       0.00000000
Si       2.62544303      -2.67903713       0.03674939       0.00000000
Si      -2.73513989      -2.64244979      -0.01657955       0.00000000
Si      -0.07441272      -2.66108555      -2.79327491       0.00000000
