10
Lattice="16.2900001489832 0.0 0.0 0.0 16.2900001489832 0.0 0.0 0.0 29.18935068521919" Properties=species:S:1:pos:R:3:initial_magmoms:R:1 pbc="T T T"
Si      -1.33974989      -1.31694551      -1.37919390       0.00000000
Si      -1.44926756       1.35780409       1.27295926       0.00000000
Si       1.24765600      -1.39498928       1.44604043       0.00000000
Si       1.76149147       0.92261674      -1.28837065       0.00000000
H       -2.14722890      -0.37077669      -2.24042569       0.00000000
Si       2.61122675      -2.64746711       0.02013773       0.00000000
Si       2.79178511       2.55119321       0.07755902       0.00000000
Si      -0.08604378       2.67967244       2.67246311       0.00000000
Si       3.47764299      -0.83197429      -1.28445373       0.00000000
Si       0.03828476      -2.63362061      -2.75824477       0.00000000
