10
Lattice="16.2900001489832 0.0 0.0 0.0 16.2900001489832 0.0 0.0 0.0 29.18935068521919" Properties=species:S:1:pos:R:3:initial_magmoms:R:1 pbc="T T T"
Si       1.42376882      -1.39794265      -1.23424250       0.00000000
Si      -1.13129164      -1.48092391       1.49837694       0.00000000
Si       1.49148472       1.20273958       1.44987883       0.00000000
Si      -1.32941062       1.54495990      -1.43401442       0.00000000
Si       2.76306096       0.22871160      -2.43459617       0.00000000
Si      -0.10593387      -2.81186580      -2.45237249       0.00000000
Si      -2.56753208      -0.12888648       2.78003754       0.00000000
Si      -2.57039912       2.81191467       0.09191727       0.00000000
Si       0.21141162       2.58989825       2.85402087       0.00000000
Si       2.90118387       2.65264733       0.24665702       0.00000000
