10
Lattice="16.2900001489832 0.0 0.0 0.0 16.2900001489832 0.0 0.0 0.0 29.18935068521919" Properties=species:S:1:pos:R:3:initial_magmoms:R:1 pbc="T T T"
Si      -1.37326656      -1.30756573      -1.36106731       0.00000000
Si      -1.40583027       1.37811772       1.30079422       0.00000000
Si       1.27900610       1.29018430      -1.51162015       0.00000000
Si       1.40584004      -1.41027418       1.27793896       0.00000000
Si       2.66841280       2.63964791      -0.12901693       0.00000000
Si      -2.79486229      -0.01233153       2.59791059       0.00000000
Si      -0.00184240       2.66817170       2.72908753       0.00000000
Si       0.07840540      -2.78800095       2.63749135       0.00000000
Si       2.70612415      -0.07193664       2.73057619       0.00000000
Si      -2.78681503       2.66222585      -0.14410782       0.00000000
