10
Lattice="16.2900001489832 0.0 0.0 0.0 16.2900001489832 0.0 0.0 0.0 29.18935068521919" Properties=species:S:1:pos:R:3:initial_magmoms:R:1 pbc="T T T"
Si      -1.38903202      -1.39044925       1.29711637       0.00000000
Si       1.40583027      -1.37811772      -1.30079422       0.00000000
Si      -1.38098476       1.28410813      -1.44490205       0.00000000
Si       1.40398787       1.29005398       1.42829331       0.00000000
Si       0.17065404      -2.65414601       2.52038367       0.00000000
Si       0.03256371      -2.68568345      -2.66186154       0.00000000
Si       2.74075994       2.61319295       0.00420327       0.00000000
Si      -2.75120184       2.62247825      -0.09054537       0.00000000
Si      -0.02000412       2.68670972      -2.75199825       0.00000000
Si       0.03951954       2.63067212       2.81073015       0.00000000
