10
Lattice="16.2900001489832 0.0 0.0 0.0 16.2900001489832 0.0 0.0 0.0 29.18935068521919" Properties=species:S:1:pos:R:3:initial_magmoms:R:1 pbc="T T T"
H        0.89190846      -1.02322378       0.67765997       0.00000000
Si       1.42683948       1.37611405      -1.21097859       0.00000000
Si      -1.20971333      -1.27347076      -1.53857067       0.00000000
Si      -1.78587435       0.86333743       1.36057401       0.00000000
H        1.16290890      -1.90829207       2.10688733       0.00000000
Si      -2.42499621      -2.50934420      -0.04340456       0.00000000
Si      -2.73734067       2.54371610      -0.01179250       0.00000000
Si       0.02362050       2.67072923      -2.63066104       0.00000000
Si       2.59626601       2.71577108       0.38045400       0.00000000
Si       2.73158705      -0.06937911      -2.62917238       0.00000000
