10
Lattice="16.2900001489832 0.0 0.0 0.0 16.2900001489832 0.0 0.0 0.0 29.18935068521919" Properties=species:S:1:pos:R:3:initial_magmoms:R:1 pbc="T T T"
Si      -1.36098064      -1.40260159       1.30709620       0.00000000
Si       1.28007310      -1.38715867      -1.40414204       0.00000000
Si       1.36377275       1.29611386       1.43439096       0.00000000
Si      -1.31856148       1.42078123      -1.36811654       0.00000000
Si       2.68977224       0.06274908      -2.60736385       0.00000000
Si      -2.73119772      -0.06423147       2.66145289       0.00000000
Si       2.70661610       2.68989116       0.12279376       0.00000000
Si      -0.00066789       2.66713240       2.76878213       0.00000000
Si       0.02000412      -2.68670972       2.75199825       0.00000000
Si      -2.71024877       2.74619755      -0.00877140       0.00000000
