10
Lattice="16.2900001489832 0.0 0.0 0.0 16.2900001489832 0.0 0.0 0.0 29.18935068521919" Properties=species:S:1:pos:R:3:initial_magmoms:R:1 pbc="T T T"
Si      -1.36357075       1.25247784       1.42590270       0.00000000
Si      -1.38041461      -1.37466424      -1.30425491       0.00000000
Si       1.39082392      -1.48879198       1.24207693       0.00000000
Si       0.86641624       1.81549282      -1.30459147       0.00000000
Si      -2.61122675       2.64746711      -0.02013773       0.00000000
Si       0.05129721      -2.66975183      -2.60438479       0.00000000
Si       2.66198150       2.62571996       0.02997163       0.00000000
Si      -2.57294199       0.01384650      -2.77838251       0.00000000
Si       1.21666753       0.93256993      -3.47177553       0.00000000
Si       0.01545921       2.54756054       2.82433822       0.00000000
