10
Lattice="16.2900001489832 0.0 0.0 0.0 16.2900001489832 0.0 0.0 0.0 29.18935068521919" Properties=species:S:1:pos:R:3:initial_magmoms:R:1 pbc="T T T"
Si       1.34284336       1.39377730      -1.31159720       0.00000000
Si      -1.36444064       1.37101854       1.33439117       0.00000000
Si       1.39699132      -1.36963063       1.32181056       0.00000000
Si      -1.36377275      -1.29611386      -1.43439096       0.00000000
Si      -2.67084978      -0.09381411       2.64254111       0.00000000
Si       2.72187332       2.68886000       0.08683832       0.00000000
Si      -2.72475339      -2.69871545      -0.12729476       0.00000000
Si       0.06021924      -2.69276960       2.74590060       0.00000000
Si       2.70641411       0.14129946      -2.73749990       0.00000000
Si      -0.00752598       2.71779756       2.73180214       0.00000000
