10
Lattice="16.2900001489832 0.0 0.0 0.0 16.2900001489832 0.0 0.0 0.0 29.18935068521919" Properties=species:S:1:pos:R:3:initial_magmoms:R:1 pbc="T T T"
Si      -1.09503010       1.81991882      -1.16839133       0.00000000
Si       0.11543094      -1.52200729      -1.88796720       0.00000000
Si      -1.46214154      -0.46200069       1.88282988       0.00000000
Si       2.13728060       0.69999760       0.95457934       0.00000000
H        0.05932818       1.38794059       2.98995276       0.00000000
Si      -2.80657155       0.73766008      -2.32904748       0.00000000
Si       3.09740506       1.96465547      -0.77226265       0.00000000
Si      -3.28869039       1.17934714       1.41101321       0.00000000
Si       1.39510819       2.11651085       2.79957981       0.00000000
Si      -1.39489642      -0.66598408      -3.54872450       0.00000000
