10
Lattice="16.290000149 0.0 0.0 0.0 16.290000149 0.0 0.0 0.0 29.1751946751" Properties=species:S:1:pos:R:3:initial_magmoms:R:1 pbc="T T T"
Si       1.34570062       1.35786925       1.36341520       0.00000000
Si      -1.35469270       1.36731745      -1.35419584       0.00000000
Si      -1.36246303      -1.34397388       1.37152590       0.00000000
Si       1.37806885      -1.34920297      -1.35130749       0.00000000
Si      -0.05616792      -2.75449242      -2.58629640       0.00000000
Si       2.68032404      -2.69808014       0.06576089       0.00000000
Si      -0.02365308       2.72153774       2.70057272       0.00000000
Si       2.69259041      -0.00091224       2.73193605       0.00000000
Si      -2.67498092       0.02645496      -2.74944409       0.00000000
Si       2.69804756       2.73207737       0.01575461       0.00000000
