10
Lattice="16.290000149 0.0 0.0 0.0 16.290000149 0.0 0.0 0.0 29.1751946751" Properties=species:S:1:pos:R:3:initial_magmoms:R:1 pbc="T T T"
Si       1.36523233       1.35622396       1.34646441       0.00000000
Si       1.36935370      -1.36366849      -1.33715752       0.00000000
Si      -1.34910523       1.36050823      -1.36469891       0.00000000
Si      -1.34920297      -1.34715043       1.37794444       0.00000000
Si      -0.00931788       2.72132597       2.67912895       0.00000000
Si       2.71630865      -0.01995525       2.68861089       0.00000000
Si      -2.69650001      -2.70979265       0.02684118       0.00000000
Si       2.72170064       0.01053963      -2.68481811       0.00000000
Si       0.02365308      -2.72153774      -2.70057272       0.00000000
Si      -2.70883154       0.00503361      -2.71793196       0.00000000
