10
Lattice="16.290000149 0.0 0.0 0.0 16.290000149 0.0 0.0 0.0 29.1751946751" Properties=species:S:1:pos:R:3:initial_magmoms:R:1 pbc="T T T"
H        0.09389556      -0.44924888      -1.49762109       0.00000000
Si      -1.94310380      -0.02603794       1.34237988       0.00000000
Si       1.49587813       1.73399721       0.58312462       0.00000000
Si      -1.48151035       1.29592653      -1.34483060       0.00000000
Si       0.34492446      -2.30561332       0.53513142       0.00000000
H        1.98092918       0.80233301      -2.19231165       0.00000000
H       -2.07853886       1.38368076       1.92439584       0.00000000
Si       1.95740642      -2.38981633      -1.17080056       0.00000000
Si      -1.18513009      -1.18789125       3.17033128       0.00000000
Si       2.83481841      -0.45822793      -2.19164062       0.00000000
