10
Lattice="16.290000149 0.0 0.0 0.0 16.290000149 0.0 0.0 0.0 29.1751946751" Properties=species:S:1:pos:R:3:initial_magmoms:R:1 pbc="T T T"
Si      -1.82667917      -1.30088683       0.63199307       0.00000000
Si       1.82325827      -1.45536490      -0.16489820       0.00000000
Si      -1.03366567       0.82536544      -1.95339598       0.00000000
Si       0.64944973       1.77142349       1.58902698       0.00000000
H       -0.00496845      -1.16594047       3.12130820       0.00000000
Si      -2.56101608       2.08922510      -0.73871593       0.00000000
Si       3.44429247       0.23263749      -0.08110704       0.00000000
Si      -3.47807793       0.35238528       0.53571492       0.00000000
Si      -1.36648666      -1.72892288       2.84393963       0.00000000
Si       2.88127749       1.26890956       1.92950150       0.00000000
