10
Lattice="16.290000149 0.0 0.0 0.0 16.290000149 0.0 0.0 0.0 29.1751946751" Properties=species:S:1:pos:R:3:initial_magmoms:R:1 pbc="T T T"
Si      -1.35615880       1.35726652      -1.30305172       0.00000000
Si       1.38533419       1.35384562       1.29324885       0.00000000
Si       1.36179514      -1.34931700      -1.33079733       0.00000000
Si      -1.34618932      -1.30965085       1.39054813       0.00000000
H       -0.43968339      -2.21078108       2.19651288       0.00000000
Si       2.60863175      -0.17679537       2.53646225       0.00000000
Si      -2.66706398      -0.07337016      -2.62474639       0.00000000
Si      -2.55497249       2.76024279       0.17134592       0.00000000
Si       2.60337008      -2.73683405       0.04414207       0.00000000
Si       0.01638774       2.61123815      -2.73444512       0.00000000
