10
Lattice="16.290000149 0.0 0.0 0.0 16.290000149 0.0 0.0 0.0 29.1751946751" Properties=species:S:1:pos:R:3:initial_magmoms:R:1 pbc="T T T"
H        1.29293731       0.06274908       0.80173435       0.00000000
Si      -1.28048361      -1.41738803       1.35816366       0.00000000
Si       0.61698376      -1.50852080      -1.75885579       0.00000000
Si      -0.80153480       2.25235316       0.19947081       0.00000000
Si       0.52680231       2.01885230      -1.70421065       0.00000000
Si       2.73562860       1.92660203      -0.89407384       0.00000000
Si       0.53408394      -2.58444110       2.29282020       0.00000000
Si       3.60035067      -0.14832045      -0.09490691       0.00000000
H       -3.10171377       1.01408509      -1.53832049       0.00000000
Si       2.68509701      -2.23191736      -0.91087875       0.00000000
