10
Lattice="16.290000149 0.0 0.0 0.0 16.290000149 0.0 0.0 0.0 29.1751946751" Properties=species:S:1:pos:R:3:initial_magmoms:R:1 pbc="T T T"
Si       1.33155113       1.35972631       1.37979415       0.00000000
Si      -1.29670030      -1.31891986       1.46349779       0.00000000
Si      -1.38600208       1.36166482      -1.35638106       0.00000000
Si       1.39756310      -1.35097858      -1.36983958       0.00000000
Si      -0.10710675      -2.73502587      -2.54349230       0.00000000
Si       0.07800515       2.53483805      -2.77344069       0.00000000
Si      -2.68183901      -2.66835089       0.18338652       0.00000000
Si       2.67981905       2.68698665      -0.00029467       0.00000000
Si       2.70153362       0.01277136       2.74396790       0.00000000
Si       2.75903733      -2.68734503       0.01188306       0.00000000
