10
Lattice="16.290000149 0.0 0.0 0.0 16.290000149 0.0 0.0 0.0 29.1751946751" Properties=species:S:1:pos:R:3:initial_magmoms:R:1 pbc="T T T"
Si       2.23961438      -0.50424066       0.32101467       0.00000000
Si      -1.49587813      -1.73399721      -0.58312462       0.00000000
Si      -0.77102200       0.62700211       2.18491983       0.00000000
Si      -0.12535155       1.47970216      -1.89169045       0.00000000
H        0.48505104      -0.93166420      -2.77543627       0.00000000
H       -1.40198257      -2.18324609      -2.08074571       0.00000000
Si      -2.97738849      -0.43807068      -1.92795521       0.00000000
Si       1.33894027      -2.19222514      -2.77476524       0.00000000
Si      -1.34604271       3.33295032      -1.21071223       0.00000000
H       -3.57441699      -0.35031645       1.34127122       0.00000000
