10
Lattice="16.290000149 0.0 0.0 0.0 16.290000149 0.0 0.0 0.0 29.1751946751" Properties=species:S:1:pos:R:3:initial_magmoms:R:1 pbc="T T T"
Si      -1.34532595      -1.33560082      -1.38678453       0.00000000
Si      -1.34731333       1.30870603       1.41482189       0.00000000
Si       1.30603447       1.35164647      -1.43272963       0.00000000
Si       1.34814412      -1.38499210       1.36076025       0.00000000
Si       2.69556171       2.64091853      -0.00134206       0.00000000
Si      -2.69373071       2.65619855       0.04749722       0.00000000
Si       2.66346389      -0.10937106      -2.72140673       0.00000000
Si       0.01133784       2.65396682       2.78491821       0.00000000
Si      -2.68918580      -2.75336841      -0.03034220       0.00000000
Si       2.71177352      -0.05356152       2.73925903       0.00000000
