10
Lattice="16.290000149 0.0 0.0 0.0 16.290000149 0.0 0.0 0.0 29.1751946751" Properties=species:S:1:pos:R:3:initial_magmoms:R:1 pbc="T T T"
Si       1.34358292      -1.33462342      -1.38485897       0.00000000
Si      -1.36251190       1.34102539      -1.36452385       0.00000000
Si      -1.35179308      -1.39101940       1.32843414       0.00000000
Si       1.37016820       1.34824186       1.35708418       0.00000000
Si      -2.72999225      -0.04362462       2.65106241       0.00000000
Si       2.68956047      -2.71311581      -0.02888344       0.00000000
Si      -2.69825933      -0.06224409      -2.70404457       0.00000000
Si      -2.71689509       2.69289992       0.00388030       0.00000000
Si       2.71765567       2.70239699      -0.00081691       0.00000000
Si       0.02733462       2.71349048       2.70993796       0.00000000
