10
Lattice="16.290000149 0.0 0.0 0.0 16.290000149 0.0 0.0 0.0 29.1751946751" Properties=species:S:1:pos:R:3:initial_magmoms:R:1 pbc="T T T"
Si       1.33038802       1.33692031      -1.34731808       0.00000000
Si      -1.24434424       1.40359528       1.37956075       0.00000000
Si      -1.71836696      -0.94141540      -1.29985003       0.00000000
Si       1.45446791      -1.37095012       1.24267949       0.00000000
Si      -3.41493789       0.73997326      -1.13162703       0.00000000
Si      -2.56025045       2.67419900      -0.08372989       0.00000000
Si      -2.59033808      -2.65732094       0.08837166       0.00000000
Si       2.60285369      -0.08498493      -2.67273667       0.00000000
Si      -2.65768094       0.00602730       2.64170009       0.00000000
Si       0.15392421      -2.66132176       2.71434633       0.00000000
