10
Lattice="10.86 0.0 0.0 0.0 10.86 0.0 0.0 0.0 10.86" Properties=species:S:1:pos:R:3:initial_magmoms:R:1 pbc="T T T"
Si      -1.35743484      -1.07630202      -1.36906590       0.00000000
Si       1.46409090      -1.25594814       1.10463576       0.00000000
Si      -1.36490652       1.49571522       1.23649788       0.00000000
Si      -0.02060142      -2.47371252       2.66604312       0.00000000
Si       2.69439858      -2.47371252      -0.04895688       0.00000000
Si      -2.73560142      -2.47371252      -0.04895688       0.00000000
Si      -0.02060142      -2.47371252      -2.76395688       0.00000000
Si       2.69439858       0.24128748       2.66604312       0.00000000
Si      -2.73560142       0.24128748       2.66604312       0.00000000
Si      -2.73560142       0.24128748      -2.76395688       0.00000000
