10
Lattice="10.86 0.0 0.0 0.0 10.86 0.0 0.0 0.0 10.86" Properties=species:S:1:pos:R:3:initial_magmoms:R:1 pbc="T T T"
Si      -1.54302138      -1.26156276       1.12554126       0.00000000
Si       1.17197862      -1.26156276      -1.58945874       0.00000000
Si      -1.54302138       1.45343724      -1.58945874       0.00000000
Si       1.63597212       1.97890920       0.67787034       0.00000000
Si       2.45775918       0.23309904       2.39302272       0.00000000
Si      -0.18552138      -2.61906276       2.48304126       0.00000000
Si      -0.07214298       2.93354664       2.14404636       0.00000000
Si       2.52947862      -2.61906276      -0.23195874       0.00000000
Si      -2.90052138       0.09593724       2.48304126       0.00000000
Si      -2.90052138      -2.61906276      -0.23195874       0.00000000
