10
Lattice="10.86 0.0 0.0 0.0 10.86 0.0 0.0 0.0 10.86" Properties=species:S:1:pos:R:3:initial_magmoms:R:1 pbc="T T T"
Si       1.42921944       1.22033820       1.44751854       0.00000000
Si       1.42921944      -1.49466180      -1.26748146       0.00000000
Si      -1.28578056      -1.49466180       1.44751854       0.00000000
Si      -0.82178706       1.74581016      -1.71515238       0.00000000
Si      -2.45775918      -0.23309904      -2.39302272       0.00000000
Si      -2.52990216       2.70044760      -0.24897636       0.00000000
Si       2.78702352      -0.39111204      -2.48200956       0.00000000
Si       2.96612664       2.30454630       0.35860806       0.00000000
Si       0.07171944       2.57783820       2.80501854       0.00000000
Si      -2.64328056      -0.13716180       2.80501854       0.00000000
