10
Lattice="10.86 0.0 0.0 0.0 10.86 0.0 0.0 0.0 10.86" Properties=species:S:1:pos:R:3:initial_magmoms:R:1 pbc="T T T"
Si       1.40780352      -1.38081642      -1.01256468       0.00000000
Si      -1.32501774      -1.22473650       1.36561242       0.00000000
Si      -1.32501774       1.49026350      -1.34938758       0.00000000
Si       1.38998226       1.49026350       1.36561242       0.00000000
Si       0.14586066      -2.45962710       2.38411752       0.00000000
Si       2.56522974      -0.07254480      -2.61998586       0.00000000
Si      -2.68251774      -2.58223650       0.00811242       0.00000000
Si       2.59194534       0.17517180       2.74673292       0.00000000
Si       0.06560526      -2.64084792      -2.71156824       0.00000000
Si      -2.68251774       0.13276350      -2.70688758       0.00000000
