10
Lattice="16.2900001489832 0.0 0.0 0.0 16.2900001489832 0.0 0.0 0.0 29.29585470619324" Properties=species:S:1:pos:R:3:initial_magmoms:R:1 pbc="T T T"
Si      -1.13533156       1.61012968      -1.26826442       0.00000000
Si       1.40993209       1.38504260       1.33639193       0.00000000
Si      -1.43650760      -1.20993976       1.47273484       0.00000000
Si       0.77693527      -1.82490356      -1.40120608       0.00000000
Si       2.52148025      -2.76547188      -0.02244648       0.00000000
Si      -1.08981730      -3.36536742      -1.23781138       0.00000000
Si      -2.84265390      -2.52364682       0.08059583       0.00000000
Si       2.67660992      -0.06783156       2.70907850       0.00000000
Si      -1.71737327       0.67896395      -3.33207829       0.00000000
Si      -2.68363857       2.77726584       0.11428020       0.00000000
