10
Lattice="16.2900001489832 0.0 0.0 0.0 16.2900001489832 0.0 0.0 0.0 29.29585470619324" Properties=species:S:1:pos:R:3:initial_magmoms:R:1 pbc="T T T"
H       -0.38015973       1.02327265      -1.05951388       0.00000000
Si       2.17025156       0.57871855       0.65575841       0.00000000
Si      -1.54245939       0.19160298       1.76645215       0.00000000
Si      -0.02832831      -2.24593490      -0.85497022       0.00000000
Si       3.26116029      -1.29489374      -0.29111291       0.00000000
Si      -1.93941737      -2.97165441       0.39654869       0.00000000
H        1.39554802      -0.84616614       3.26361681       0.00000000
Si      -1.65863641      -2.05138343       2.57393379       0.00000000
Si       2.07858773       0.47887713       3.03091983       0.00000000
Si      -3.66195945       0.39713391       0.78855652       0.00000000
