10
Lattice="16.2900001489832 0.0 0.0 0.0 16.2900001489832 0.0 0.0 0.0 29.29585470619324" Properties=species:S:1:pos:R:3:initial_magmoms:R:1 pbc="T T T"
Si      -0.92288764       1.69688370      -1.28808014       0.00000000
Si       0.58204171       0.93116573       2.06381387       0.00000000
Si      -1.69951943      -1.62314865      -0.11182228       0.00000000
Si       2.19136340      -0.21374435      -1.05907444       0.00000000
Si       2.03019014       2.44659838       0.93358506       0.00000000
Si       0.41756646       3.41212298      -0.44863672       0.00000000
Si      -0.50803135       1.03814868      -3.51028790       0.00000000
Si       1.80706601       0.71658733      -3.25058015       0.00000000
Si       2.83406907      -2.47221603      -0.54188542       0.00000000
Si      -0.56865458      -3.75920750       0.03240122       0.00000000
