10
Lattice="16.2900001489832 0.0 0.0 0.0 16.2900001489832 0.0 0.0 0.0 29.29585470619324" Properties=species:S:1:pos:R:3:initial_magmoms:R:1 pbc="T T T"
Si      -1.90444763       0.02643867      -1.49060824       0.00000000
Si       1.37238364       1.86997799      -0.88506293       0.00000000
Si       1.51554016      -1.96656971      -0.09690512       0.00000000
Si      -1.10087821       0.73287082       2.13392763       0.00000000
Si      -2.41425947       2.38422071       1.13597899       0.00000000
Si       2.86881564       2.15972822       0.94282556       0.00000000
Si      -1.15004143       1.35589816      -3.29956868       0.00000000
Si      -3.62472051       1.02374506      -0.22800143       0.00000000
Si       1.97226290      -2.76402207       2.19137095       0.00000000
Si       1.05192676      -3.30773340      -2.12237335       0.00000000
