10
Lattice="16.2900001489832 0.0 0.0 0.0 16.2900001489832 0.0 0.0 0.0 29.29585470619324" Properties=species:S:1:pos:R:3:initial_magmoms:R:1 pbc="T T T"
Si       0.89163316      -1.77777984      -1.22866815       0.00000000
Si      -2.31509735       0.32156134      -0.25970775       0.00000000
Si       0.85748932       2.17692720      -0.28973600       0.00000000
Si       0.38429739      -0.93033168       2.19150571       0.00000000
H        0.27411183      -2.80497838      -0.30772366       0.00000000
Si      -2.72995365       0.98029637       1.96250001       0.00000000
Si       2.69780321       2.06216415       1.11259797       0.00000000
Si       1.94339702       0.73270466       2.92155841       0.00000000
H        1.00621702      -0.24495436      -3.60002111       0.00000000
Si      -1.80706601      -0.71658733       3.25058015       0.00000000
