10
Lattice="16.2900001489832 0.0 0.0 0.0 16.2900001489832 0.0 0.0 0.0 29.29585470619324" Properties=species:S:1:pos:R:3:initial_magmoms:R:1 pbc="T T T"
Si      -0.70672537       1.93610398      -1.01723996       0.00000000
Si       2.28553589      -0.05583398       0.40094307       0.00000000
Si       0.36463536      -1.43959130      -1.86494481       0.00000000
Si      -0.53447490      -0.33793280       2.30783955       0.00000000
H        1.76290382      -1.97160641      -1.54172365       0.00000000
Si       2.29610810      -2.33902736       1.18434352       0.00000000
Si      -2.28889163       1.09874911      -2.51742209       0.00000000
Si       2.49965165       1.52913091       2.20694462       0.00000000
Si       0.17153370      -3.48165684       1.17763477       0.00000000
Si      -0.39842082      -3.56743999      -1.16864094       0.00000000
