10
Lattice="16.2900001489832 0.0 0.0 0.0 16.2900001489832 0.0 0.0 0.0 29.29585470619324" Properties=species:S:1:pos:R:3:initial_magmoms:R:1 pbc="T T T"
Si       2.26476614       0.07774956      -0.58489174       0.00000000
Si      -1.52669881      -1.19211850      -1.40502919       0.00000000
Si      -0.45317151       2.31987521      -0.45168349       0.00000000
Si       0.24954651      -1.20099655       2.10174321       0.00000000
Si      -1.46569276      -2.81597088       1.81350129       0.00000000
Si       2.23689395       1.08207955      -2.74850779       0.00000000
Si       3.18925623       1.45825964       1.30835287       0.00000000
Si      -1.48563172      -3.42093261      -0.55281278       0.00000000
Si      -1.02615598      -0.89301781      -3.67249905       0.00000000
H        1.70802281      -1.71677054      -3.11215724       0.00000000
