10
Lattice="16.2900001489832 0.0 0.0 0.0 16.2900001489832 0.0 0.0 0.0 29.29585470619324" Properties=species:S:1:pos:R:3:initial_magmoms:R:1 pbc="T T T"
Si       1.49643199       0.28975023       1.82788849       0.00000000
Si      -0.82385047       2.28911969      -0.18430022       0.00000000
Si       1.81271864      -0.23125284      -1.62155485       0.00000000
Si      -1.37238364      -1.86997799       0.88506293       0.00000000
Si       3.26756226       0.60504319       0.29043910       0.00000000
Si      -2.52242507      -0.51407982      -2.41450575       0.00000000
Si       0.17907597       1.66706975       3.21038331       0.00000000
Si      -3.27683127      -1.84353932      -0.60554532       0.00000000
Si       0.83196289      -0.17239707      -3.77983906       0.00000000
Si       0.14315652      -3.83654769       0.78815780       0.00000000
