10
Lattice="16.2900001489832 0.0 0.0 0.0 16.2900001489832 0.0 0.0 0.0 29.29585470619324" Properties=species:S:1:pos:R:3:initial_magmoms:R:1 pbc="T T T"
Si      -1.27280287      -1.34120458      -1.46309943       0.00000000
Si       1.31491252      -1.48263436       1.31013992       0.00000000
Si       1.37953495       1.46297233      -1.27170669       0.00000000
Si      -1.42757416       1.33835383       1.36096823       0.00000000
Si      -2.58618413       0.31014531      -2.46104808       0.00000000
Si       2.69689097       0.08565282      -2.65420151       0.00000000
Si       2.71150310      -0.15203457       2.72993422       0.00000000
Si      -0.05357781       2.52858269       2.90673470       0.00000000
Si       2.70405857       2.76095955       0.08861996       0.00000000
Si      -2.74747143       2.73805581      -0.12248597       0.00000000
