10
Lattice="16.2900001489832 0.0 0.0 0.0 16.2900001489832 0.0 0.0 0.0 29.29585470619324" Properties=species:S:1:pos:R:3:initial_magmoms:R:1 pbc="T T T"
Si      -1.36342414      -1.41572970       1.29347058       0.00000000
Si      -1.31491252       1.48263436      -1.31013992       0.00000000
Si       1.29889945      -1.49032324      -1.32745377       0.00000000
Si       1.39659058       1.33059979       1.41979430       0.00000000
H       -0.35606682      -2.40986769       1.97571244       0.00000000
Si       2.55262673      -0.01532889      -2.66199713       0.00000000
Si      -2.58486464       0.00229689       2.71965138       0.00000000
Si       2.62754444      -2.69294879       0.22030483       0.00000000
Si      -2.58771539       0.14142978      -2.77323935       0.00000000
Si       2.66550014       2.78251122       0.06143341       0.00000000
