10
Lattice="16.2900001489832 0.0 0.0 0.0 16.2900001489832 0.0 0.0 0.0 29.29585470619324" Properties=species:S:1:pos:R:3:initial_magmoms:R:1 pbc="T T T"
Si      -1.22759812       0.38014344       1.91597819       0.00000000
Si       1.04760991       1.75026278      -1.20742865       0.00000000
Si       1.36919080      -1.56027250       1.22796505       0.00000000
Si      -1.73356553      -0.93538810      -1.41882754       0.00000000
Si      -2.20068128      -1.83853829       1.89503166       0.00000000
Si       2.24788970       0.39291480      -2.71868461       0.00000000
Si      -0.51212502      -2.35341469      -2.84500834       0.00000000
Si      -0.24899265      -3.16837896       2.25449179       0.00000000
Si       1.81827353      -0.74126017       3.38739179       0.00000000
Si      -3.40418649      -2.03053549      -0.11457609       0.00000000
