10
Lattice="16.2900001489832 0.0 0.0 0.0 16.2900001489832 0.0 0.0 0.0 29.29585470619324" Properties=species:S:1:pos:R:3:initial_magmoms:R:1 pbc="T T T"
Si       1.94812112      -1.10703583      -0.63475328       0.00000000
Si      -1.65395630      -1.02081286       1.33606675       0.00000000
Si       0.50138991       1.98029387       1.19140382       0.00000000
Si      -1.09775053       0.01436778      -2.10616688       0.00000000
Si       1.71266546       3.04469877      -0.46829424       0.00000000
Si      -1.68202397       2.66489741       1.58768885       0.00000000
Si      -2.07083369      -2.20431395      -2.12711342       0.00000000
Si       1.49903839      -1.92604817      -2.79418003       0.00000000
Si      -3.23612256      -1.85816774      -0.16411538       0.00000000
Si      -2.76294693       0.70346737       2.44995374       0.00000000
