10
Lattice="16.2900001489832 0.0 0.0 0.0 16.2900001489832 0.0 0.0 0.0 29.29585470619324" Properties=species:S:1:pos:R:3:initial_magmoms:R:1 pbc="T T T"
Si      -1.16211232      -1.90070093       0.78764835       0.00000000
Si      -0.18751419       0.33212052      -2.33227229       0.00000000
Si       2.14591430      -0.90614755       0.45575561       0.00000000
Si      -0.94424986       2.00109620       0.96351137       0.00000000
H       -0.16474077       0.44874063       2.72597928       0.00000000
H        0.12541671      -0.29980116       2.85558414       0.00000000
Si      -3.09415195       1.14225481       1.26874488       0.00000000
Si      -0.02726946      -3.52756695      -0.41046422       0.00000000
Si       2.80389999       2.03009240      -1.07615393       0.00000000
Si      -3.65866399       0.08500122      -0.82163154       0.00000000
