10
Lattice="16.2900001489832 0.0 0.0 0.0 16.2900001489832 0.0 0.0 0.0 29.29585470619324" Properties=species:S:1:pos:R:3:initial_magmoms:R:1 pbc="T T T"
Si       1.57473802      -1.71066179       0.03439333       0.00000000
Si      -0.77559949       1.37277460      -1.73888475       0.00000000
Si      -2.00420759      -1.22740264       0.26530326       0.00000000
Si       0.40593051       1.77372038       1.55443805       0.00000000
H       -1.28371717      -2.22599594       1.71193257       0.00000000
Si      -1.87331744       2.06661458       2.04482136       0.00000000
Si      -2.85511575      -0.07452675       2.11199676       0.00000000
Si      -2.17378649       2.83724562      -0.25235449       0.00000000
Si      -1.90211816      -0.11407887      -3.18352194       0.00000000
Si       2.67248855      -1.72502957       2.14056022       0.00000000
