10
Lattice="16.2900001489832 0.0 0.0 0.0 16.2900001489832 0.0 0.0 0.0 29.29585470619324" Properties=species:S:1:pos:R:3:initial_magmoms:R:1 pbc="T T T"
Si      -1.66135196       1.16670610       1.22430306       0.00000000
Si      -1.34975683      -1.22704426      -1.53832533       0.00000000
Si       1.24237315       1.41281542      -1.47677474       0.00000000
Si       1.39479868      -1.33895656       1.46549584       0.00000000
H       -0.84564649       1.73729594       2.39268034       0.00000000
Si       2.56893302      -2.54927099      -0.22443554       0.00000000
Si      -2.72776052      -2.65610081      -0.30532140       0.00000000
Si       2.63041148       2.80929198      -0.13968264       0.00000000
Si      -2.66921426       2.77252545      -0.20987550       0.00000000
Si       2.58478319       0.12170259      -2.94432129       0.00000000
