10
Lattice="16.2900001489832 0.0 0.0 0.0 16.2900001489832 0.0 0.0 0.0 29.29585470619324" Properties=species:S:1:pos:R:3:initial_magmoms:R:1 pbc="T T T"
Si      -1.18415269       2.07774065       0.44476967       0.00000000
Si       1.62724069       1.27944919      -1.29859735       0.00000000
Si      -1.03744495      -1.90241138      -1.14661046       0.00000000
Si       0.38393901      -0.70965757       2.36295384       0.00000000
Si       0.80316217       3.33583365      -0.23170091       0.00000000
Si      -1.21419145      -2.55397880       2.50023714       0.00000000
Si      -2.23339160       1.83585044       2.51989173       0.00000000
Si      -1.32843322      -3.66766095       0.44974996       0.00000000
Si      -3.36189765      -1.39771459      -1.53527856       0.00000000
Si      -0.14931414      -2.09137538      -3.40505719       0.00000000
