10
Lattice="16.2900001489832 0.0 0.0 0.0 16.2900001489832 0.0 0.0 0.0 29.29585470619324" Properties=species:S:1:pos:R:3:initial_magmoms:R:1 pbc="T T T"
Si       2.12457440       1.14262948       0.00670875       0.00000000
Si      -0.56995453      -0.08578314      -2.34627571       0.00000000
Si       0.13075983      -2.28825632       0.77437733       0.00000000
Si      -1.92824732       1.02745918       1.21700840       0.00000000
Si      -3.24770475      -0.77470354       0.01986259       0.00000000
Si      -0.70600861       3.14372405       1.13020478       0.00000000
H        1.59137011       1.51005043      -2.71935842       0.00000000
H       -1.31509171      -2.67191840      -1.92643681       0.00000000
Si       0.19310166       2.04206555      -3.04257958       0.00000000
Si      -0.17153370       3.48165684      -1.17763477       0.00000000
