10
Lattice="16.2900001489832 0.0 0.0 0.0 16.2900001489832 0.0 0.0 0.0 29.29585470619324" Properties=species:S:1:pos:R:3:initial_magmoms:R:1 pbc="T T T"
Si      -1.73364698      -1.54805500      -0.33637500       0.00000000
Si      -0.04106709       2.22881411      -0.85221641       0.00000000
Si       0.01993896       0.60496174       2.36631407       0.00000000
Si       1.64304200      -1.26557011      -1.29525762       0.00000000
H       -2.89048134       2.01642509       0.05703903       0.00000000
Si       1.48563172       3.42093261       0.55281278       0.00000000
Si      -2.66576078      -1.16887267      -2.41749393       0.00000000
Si       3.76838202      -0.79084693      -0.31024310       0.00000000
Si       1.73517824       2.21993606       2.65455599       0.00000000
Si      -0.91688266      -3.72167859      -0.60536954       0.00000000
