10
Lattice="16.2900001489832 0.0 0.0 0.0 16.2900001489832 0.0 0.0 0.0 29.29585470619324" Properties=species:S:1:pos:R:3:initial_magmoms:R:1 pbc="T T T"
Si      -1.61874057      -0.06126669       1.65644622       0.00000000
Si       0.65769247      -2.16681437      -0.55407250       0.00000000
Si      -1.25822821       0.61089130      -1.95268590       0.00000000
Si       1.78398308       1.22572477       1.08215958       0.00000000
H        1.03109185       1.60954975      -1.93425881       0.00000000
Si      -1.41478325      -3.03841083      -1.44422705       0.00000000
Si      -2.79552693      -1.19008225      -2.04877630       0.00000000
Si       1.14127741       3.48419646       0.56497056       0.00000000
Si       2.18792621      -1.95493034      -2.32767284       0.00000000
Si      -0.42253002      -0.34639056       3.71831191       0.00000000
