10
Lattice="16.2900001489832 0.0 0.0 0.0 16.2900001489832 0.0 0.0 0.0 29.29585470619324" Properties=species:S:1:pos:R:3:initial_magmoms:R:1 pbc="T T T"
Si       1.89514604       1.02570638       0.76854745       0.00000000
Si       0.30851631      -2.15072148       0.78799990       0.00000000
Si      -0.18450054       0.09052646      -2.30300573       0.00000000
Si      -1.71901856       0.96863436       1.23145125       0.00000000
H       -2.24788970      -1.83021573       0.86780181       0.00000000
H       -0.56907487      -2.97250312      -0.13581558       0.00000000
Si      -2.30089736      -0.98779466      -2.28525244       0.00000000
Si       2.55065564      -2.61426972       0.21558819       0.00000000
Si       2.19936179       2.94009905      -0.56066407       0.00000000
Si      -0.59802220      -2.15440302       2.99049155       0.00000000
