10
Lattice="16.2900001489832 0.0 0.0 0.0 16.2900001489832 0.0 0.0 0.0 29.29585470619324" Properties=species:S:1:pos:R:3:initial_magmoms:R:1 pbc="T T T"
Si      -1.31735602       1.37731951       1.38249482       0.00000000
Si       1.17064828      -1.58361607       1.30234429       0.00000000
Si       1.77113027       0.31529295      -1.53744938       0.00000000
Si      -1.49643199      -0.28975023      -1.82788849       0.00000000
Si       0.31628664      -0.52100307      -3.44944334       0.00000000
Si      -2.32028246       1.99936946      -2.01218871       0.00000000
Si       2.59414994      -0.15973974       2.62440762       0.00000000
Si      -2.86881564      -2.15972822      -0.94282556       0.00000000
Si      -2.69689097      -0.08565282       2.65420151       0.00000000
Si       2.45384417      -2.90347913      -0.14059374       0.00000000
