10
Lattice="16.2900001489832 0.0 0.0 0.0 16.2900001489832 0.0 0.0 0.0 29.29585470619324" Properties=species:S:1:pos:R:3:initial_magmoms:R:1 pbc="T T T"
Si       0.72257554       0.59956975      -2.13191794       0.00000000
Si      -2.19726038       0.83179999      -0.08158896       0.00000000
Si       1.16510968       0.88993900       1.83957460       0.00000000
Si       0.18259461      -2.36638316       0.00735326       0.00000000
Si       0.20336436      -0.52626474       3.54643899       0.00000000
Si       1.49975515       2.83276587      -1.87528625       0.00000000
Si      -3.40853592      -0.23260491       1.57810910       0.00000000
Si      -2.01557801       3.16459317      -0.35562238       0.00000000
Si       1.42164460      -2.93244438      -1.89435785       0.00000000
Si       2.30096252      -0.93770128      -2.89419608       0.00000000
