10
Lattice="16.2900001489832 0.0 0.0 0.0 16.2900001489832 0.0 0.0 0.0 29.29585470619324" Properties=species:S:1:pos:R:3:initial_magmoms:R:1 pbc="T T T"
Si       0.71381152       0.46672479       2.17896708       0.00000000
Si      -2.35092395       0.30095775       0.04283054       0.00000000
Si       0.85014253      -2.23402691       0.07470443       0.00000000
Si       0.96174532       1.41620374      -1.70686438       0.00000000
Si       3.00535842       0.27839610       1.76431355       0.00000000
Si      -0.20336436       0.52626474      -3.54643899       0.00000000
Si      -2.44185473       2.56251476       0.69606951       0.00000000
Si       3.07056729      -1.88713136       0.87527225       0.00000000
Si      -0.29341548      -3.20056149       1.88146768       0.00000000
Si       0.41150169      -1.57457512       3.39975464       0.00000000
