10
Lattice="16.2900001489832 0.0 0.0 0.0 16.2900001489832 0.0 0.0 0.0 29.29585470619324" Properties=species:S:1:pos:R:3:initial_magmoms:R:1 pbc="T T T"
Si       1.51602886      -0.75017080      -1.58698575       0.00000000
Si       1.16655949       1.91552483       0.66132462       0.00000000
Si       0.19435599      -1.63002628       1.70859284       0.00000000
Si      -2.05915376       0.81158410      -1.03323550       0.00000000
Si      -3.49985766       0.23811093       0.70292474       0.00000000
Si       1.81833869       1.29112912      -2.80777331       0.00000000
Si       1.07153992       3.13198059      -1.43034081       0.00000000
Si      -1.31010697      -1.05955048       3.41668765       0.00000000
Si      -2.55827936       0.80733241       2.77698336       0.00000000
Si       3.50480982       1.52140456       0.84462879       0.00000000
