10
Lattice="16.2900001489832 0.0 0.0 0.0 16.2900001489832 0.0 0.0 0.0 29.29585470619324" Properties=species:S:1:pos:R:3:initial_magmoms:R:1 pbc="T T T"
Si      -1.32452362      -1.29798721      -1.36032665       0.00000000
Si       1.27635409      -1.46108269       1.28295337       0.00000000
Si       1.22057713       1.32792823      -1.55759321       0.00000000
Si      -1.50809563       1.20933703       1.39785171       0.00000000
Si      -2.21320829       0.43774488      -2.70452300       0.00000000
Si       2.52035624       2.56378538       0.03787954       0.00000000
Si      -0.61507783       2.28206612      -2.84180630       0.00000000
Si       2.62674623      -0.16390998       2.69530652       0.00000000
Si      -0.25365159       2.66385485       2.72999281       0.00000000
Si      -0.00716760      -2.67530672      -2.74282147       0.00000000
