10
Lattice="16.2900001489832 0.0 0.0 0.0 16.2900001489832 0.0 0.0 0.0 29.29585470619324" Properties=species:S:1:pos:R:3:initial_magmoms:R:1 pbc="T T T"
Si       1.43380183      -1.45233496      -1.13870058       0.00000000
Si      -1.59372728       0.89793739      -1.50718384       0.00000000
H       -1.51579592       1.26550495       1.43526251       0.00000000
Si      -1.56987872      -1.72421181       0.88810384       0.00000000
Si       1.43056012       2.07801758       0.57182579       0.00000000
H        1.46998192       0.58570696       2.43738582       0.00000000
H       -2.88752796       0.82502335      -0.68432187       0.00000000
H        2.63680205       1.06142383      -1.88398712       0.00000000
Si       1.68585700      -3.23177313       0.28876924       0.00000000
Si       1.06540348       3.21289302      -1.48392293       0.00000000
