10
Lattice="16.2900001489832 0.0 0.0 0.0 16.2900001489832 0.0 0.0 0.0 29.29585470619324" Properties=species:S:1:pos:R:3:initial_magmoms:R:1 pbc="T T T"
Si      -1.03319326      -1.77345974       1.11420924       0.00000000
Si       1.99953236      -0.59093605      -1.05456288       0.00000000
Si      -1.78821848       0.37755333      -1.49391281       0.00000000
Si       0.38775087       1.81732871       1.48327842       0.00000000
H       -2.47287089      -1.47346309       0.75583305       0.00000000
Si      -1.42925203       1.16888896       2.95811963       0.00000000
Si       1.44560719       0.05466924      -3.30679890       0.00000000
Si      -0.78276709      -1.10526022       3.34921929       0.00000000
Si      -0.81028090      -0.64511659      -3.48392163       0.00000000
Si       3.57865239       0.57837646       0.36309282       0.00000000
