10
Lattice="16.2900001489832 0.0 0.0 0.0 16.2900001489832 0.0 0.0 0.0 29.29585470619324" Properties=species:S:1:pos:R:3:initial_magmoms:R:1 pbc="T T T"
Si       1.45347526       1.22274370      -1.29686157       0.00000000
Si       1.65811025      -1.28246284       1.09972244       0.00000000
Si      -1.17281485       1.70425982       1.22670825       0.00000000
Si      -2.29519586       0.08604378       2.50532583       0.00000000
Si      -0.24272100       2.28175661      -2.60600983       0.00000000
Si       0.46296180      -2.68499927       2.53309830       0.00000000
Si       0.50507145       2.82349686       2.45754429       0.00000000
Si      -2.25324911       1.07877268      -2.94124229       0.00000000
Si       3.21624876       0.08145000       2.27201365       0.00000000
Si       3.05336505      -0.03319902      -2.52108114       0.00000000
