10
Lattice="16.2900001489832 0.0 0.0 0.0 16.2900001489832 0.0 0.0 0.0 29.29585470619324" Properties=species:S:1:pos:R:3:initial_magmoms:R:1 pbc="T T T"
Si      -1.76287124       1.26754120       0.90951911       0.00000000
Si       2.17515485       0.94128508      -0.06157989       0.00000000
Si      -0.47672685      -0.23038947      -2.36839408       0.00000000
Si      -0.01936881      -1.88657750       1.59674126       0.00000000
H       -2.29607552       1.63496216      -1.81654806       0.00000000
Si       3.35717355      -1.04386321      -0.72706452       0.00000000
Si      -2.62878248      -1.19319364      -2.33367849       0.00000000
Si      -1.16004349       1.68749741       3.11060456       0.00000000
Si      -0.40711968      -3.70390620       0.11346285       0.00000000
Si       2.74255185       1.56774961       2.13171287       0.00000000
