10
Lattice="16.2900001489832 0.0 0.0 0.0 16.2900001489832 0.0 0.0 0.0 29.29585470619324" Properties=species:S:1:pos:R:3:initial_magmoms:R:1 pbc="T T T"
Si       2.33836436       0.20496909      -0.70595364       0.00000000
Si       0.45672273      -0.79745236       2.28827607       0.00000000
Si      -0.46361340      -1.34116369      -2.02546823       0.00000000
Si      -1.51554016       1.96656971       0.09690512       0.00000000
Si       1.16458840      -3.16083816      -1.65390890       0.00000000
Si      -0.14315652       3.83654769      -0.78815780       0.00000000
Si       3.17511651      -1.95785423      -1.31867644       0.00000000
Si       2.47609631       1.31809249      -2.81885857       0.00000000
Si       1.27019647       1.06768750       3.67661834       0.00000000
Si       3.80711964       1.22281880       0.89913695       0.00000000
