10
Lattice="16.2900001489832 0.0 0.0 0.0 16.2900001489832 0.0 0.0 0.0 29.29585470619324" Properties=species:S:1:pos:R:3:initial_magmoms:R:1 pbc="T T T"
Si       1.01375440       0.99641044      -1.82510245       0.00000000
Si       1.61262368      -0.96552460       1.38222178       0.00000000
Si      -1.34045410      -1.71523928      -0.83944342       0.00000000
Si      -1.59702763       1.29476179       1.15806514       0.00000000
Si      -0.41756646      -3.41212298       0.44863672       0.00000000
Si       0.16447524      -2.48095725       2.51245058       0.00000000
Si      -0.24436955       2.85557187       2.29632628       0.00000000
Si      -3.32977866       1.50374620      -0.44992574       0.00000000
Si      -0.70030548       1.56004444      -3.26707372       0.00000000
Si      -3.52406949      -0.88832629      -0.63533920       0.00000000
