10
Lattice="16.2900001489832 0.0 0.0 0.0 16.2900001489832 0.0 0.0 0.0 29.29585470619324" Properties=species:S:1:pos:R:3:initial_magmoms:R:1 pbc="T T T"
Si      -2.29154690       0.18832869       0.41465353       0.00000000
Si       1.14253174       1.20244636      -1.64868282       0.00000000
Si       0.06520887      -2.16552746      -0.88904130       0.00000000
Si       0.71527762       0.77757058       2.10751449       0.00000000
H        1.06254784      -2.26191539      -2.03342528       0.00000000
Si       0.76973509       3.06882426       1.44815269       0.00000000
Si      -3.00535842      -0.27839610      -1.76431355       0.00000000
Si      -2.59385672      -1.85297123       1.63544109       0.00000000
Si      -2.15521589      -2.51242301      -1.68960912       0.00000000
Si       0.76652596      -3.56785212       0.81676843       0.00000000
