10
Lattice="16.2900001489832 0.0 0.0 0.0 16.2900001489832 0.0 0.0 0.0 29.29585470619324" Properties=species:S:1:pos:R:3:initial_magmoms:R:1 pbc="T T T"
H        1.33881647      -0.74209096      -0.29908138       0.00000000
Si      -0.70327189       0.35922708      -2.21497169       0.00000000
Si      -0.98453503      -2.07314687       0.79371259       0.00000000
Si       1.26037197       1.90402409       0.95589444       0.00000000
Si       2.04779311       0.73730170       2.83378803       0.00000000
Si       3.32386050      -1.43747848      -0.37317060       0.00000000
Si      -0.15915330      -2.06164613       2.99793270       0.00000000
Si      -0.52087275       2.71572221      -2.39657669       0.00000000
Si       0.05870916      -3.59701122      -0.74798176       0.00000000
Si       0.77300579      -0.98880301      -3.46189115       0.00000000
