10
Lattice="16.2900001489832 0.0 0.0 0.0 16.2900001489832 0.0 0.0 0.0 29.29585470619324" Properties=species:S:1:pos:R:3:initial_magmoms:R:1 pbc="T T T"
Si      -1.19514844      -1.40253643       1.43337586       0.00000000
Si      -1.65811025       1.28246284      -1.09972244       0.00000000
Si       1.55813851       1.36391284       1.17229120       0.00000000
Si       0.88848919      -1.77925898      -1.37640714       0.00000000
Si      -0.20463498       2.50520654      -2.39658401       0.00000000
Si      -2.49492755      -2.63839358      -0.16209689       0.00000000
Si      -2.57336390      -0.00736308       2.71175907       0.00000000
Si       0.29538657       2.75328696       2.61637177       0.00000000
Si       2.90292690      -0.00563634       2.47566378       0.00000000
Si       2.82018999      -2.66694995      -0.19289563       0.00000000
