10
Lattice="16.2900001489832 0.0 0.0 0.0 16.2900001489832 0.0 0.0 0.0 29.29585470619324" Properties=species:S:1:pos:R:3:initial_magmoms:R:1 pbc="T T T"
Si      -1.86383666       0.25987437       1.37441502       0.00000000
Si      -0.76976767      -0.31508118      -2.21154407       0.00000000
Si       1.53729872       1.80097355       0.09609040       0.00000000
Si       1.38074367      -1.84832858       0.60454926       0.00000000
H        1.17973810       1.11762433      -2.83525282       0.00000000
Si       0.81079257      -3.08281737      -1.36817501       0.00000000
Si       2.45659718       1.34729704      -2.04994814       0.00000000
Si      -0.90290584       0.07149681       3.50375493       0.00000000
Si       2.79552693       1.19008225       2.04877630       0.00000000
Si       0.22835322       3.78626844      -0.19244447       0.00000000
