10
Lattice="16.2900001489832 0.0 0.0 0.0 16.2900001489832 0.0 0.0 0.0 29.29585470619324" Properties=species:S:1:pos:R:3:initial_magmoms:R:1 pbc="T T T"
Si      -1.03606030      -0.08601120       2.07539569       0.00000000
Si      -1.27218385      -1.46240218      -1.30255229       0.00000000
Si       2.18361539      -0.82691299      -0.20410422       0.00000000
Si       0.19429083       2.39207249       0.18541346       0.00000000
H       -2.04408551       1.69477904      -1.90176970       0.00000000
Si       1.92704186       2.18308808       1.79340434       0.00000000
Si       0.66658681       0.94558564       3.32834893       0.00000000
Si      -2.88864057       1.37407780       1.65093860       0.00000000
Si       3.52406949       0.88832629       0.63533920       0.00000000
Si      -0.04108338      -3.57627405      -1.05195555       0.00000000
