10
Lattice="16.2900001489832 0.0 0.0 0.0 16.2900001489832 0.0 0.0 0.0 29.29585470619324" Properties=species:S:1:pos:R:3:initial_magmoms:R:1 pbc="T T T"
Si      -0.67981429       1.95633128      -1.11608418       0.00000000
Si       2.17922735      -0.18697662      -0.91444081       0.00000000
Si      -1.26200260      -1.91374922      -0.73412482       0.00000000
Si       0.26914338       0.44960400       2.36364815       0.00000000
H       -2.85058713       0.09137061       2.01224437       0.00000000
Si      -1.97299595       0.91315225       2.93605985       0.00000000
Si       3.07360212       1.98045677      -0.52712031       0.00000000
Si       1.26117181       3.29098076      -1.23508394       0.00000000
Si      -1.24721128       1.32986674      -3.30937693       0.00000000
Si       1.08007588      -1.56879217       3.30618368       0.00000000
