10
Lattice="16.2900001489832 0.0 0.0 0.0 16.2900001489832 0.0 0.0 0.0 29.29585470619324" Properties=species:S:1:pos:R:3:initial_magmoms:R:1 pbc="T T T"
Si      -2.28335303      -0.01839141      -0.44198656       0.00000000
Si       0.85090816      -1.15287589      -1.84669350       0.00000000
Si       0.98179831       2.14114133      -0.06717539       0.00000000
Si       0.36515664      -1.13487544       2.05574872       0.00000000
H        1.57139857      -2.15146919      -0.40006419       0.00000000
H       -1.00324572       2.83652886       0.00691382       0.00000000
Si      -0.25614396       0.73381564       3.36934555       0.00000000
Si      -2.65913075      -2.31495563      -0.02326091       0.00000000
Si       2.85511575       0.07452675      -2.11199676       0.00000000
Si       0.99167005       2.52436358       2.34407852       0.00000000
