10
Lattice="16.2900001489832 0.0 0.0 0.0 16.2900001489832 0.0 0.0 0.0 29.29585470619324" Properties=species:S:1:pos:R:3:initial_magmoms:R:1 pbc="T T T"
Si       1.31777191       1.42912562      -1.27937927       0.00000000
Si       1.23305527      -1.45771066       1.37022572       0.00000000
Si      -1.31613427       1.31641120       1.44047718       0.00000000
Si      -1.41112126      -1.35757603      -1.39659199       0.00000000
Si      -0.66308446      -2.18655785       2.61632490       0.00000000
Si      -2.42647697      -0.42290469       2.61913730       0.00000000
Si       2.61795941       0.06602337      -2.65988783       0.00000000
Si      -2.65256588       2.63792117      -0.01889583       0.00000000
Si       2.48983367      -2.81066034      -0.12192935       0.00000000
Si       0.19572435       2.56052413       2.81140599       0.00000000
