10
Lattice="16.2900001489832 0.0 0.0 0.0 16.2900001489832 0.0 0.0 0.0 29.29585470619324" Properties=species:S:1:pos:R:3:initial_magmoms:R:1 pbc="T T T"
Si       0.56739700       0.62646454       2.19329275       0.00000000
Si      -2.17515485      -0.94128508       0.06157989       0.00000000
Si       1.18201870      -1.98514829      -0.66548464       0.00000000
Si       0.74419237       1.95226529      -1.28714267       0.00000000
Si       2.84021040       2.33559832      -0.22308793       0.00000000
Si      -2.65188170      -1.17167455      -2.30681419       0.00000000
Si       1.12602997      -1.85194496      -3.05107538       0.00000000
Si       1.24721128      -1.32986674       3.30937693       0.00000000
Si       2.50838309       1.96111402       2.07429299       0.00000000
Si       3.39587859      -1.74726542      -0.01620061       0.00000000
