10
Lattice="16.2900001489832 0.0 0.0 0.0 16.2900001489832 0.0 0.0 0.0 29.29585470619324" Properties=species:S:1:pos:R:3:initial_magmoms:R:1 pbc="T T T"
Si      -0.40708906      -0.59955346       2.25378869       0.00000000
Si      -1.84824550       0.82401337      -1.26807107       0.00000000
Si       0.87830468      -1.82511533      -1.32408475       0.00000000
Si       1.76223756       1.74680930      -0.15576606       0.00000000
Si       1.84329660      -0.27759789       3.04533339       0.00000000
Si      -0.61170417       2.06094566      -2.86372839       0.00000000
Si       2.21128770      -0.58010320      -2.83686409       0.00000000
Si       0.68171044       3.36678465      -1.44835776       0.00000000
Si       3.50951926       0.65728522      -1.29478889       0.00000000
Si       2.11496493      -3.22892238       0.11416595       0.00000000
