10
Lattice="16.2900001489832 0.0 0.0 0.0 16.2900001489832 0.0 0.0 0.0 29.29585470619324" Properties=species:S:1:pos:R:3:initial_magmoms:R:1 pbc="T T T"
Si      -0.92945854      -1.61101585      -1.52382388       0.00000000
Si       0.11624544      -1.40186854       1.98933501       0.00000000
Si      -1.51487227       1.92295307       0.17392949       0.00000000
Si       1.88423174       1.12226698      -1.13322225       0.00000000
H        2.69993720       1.69285682       0.03515503       0.00000000
Si      -2.00998565       0.00895950      -2.81641558       0.00000000
Si      -2.49857325       1.21700962       2.29342599       0.00000000
Si      -3.26676405       1.36190917      -1.32426052       0.00000000
Si       0.87636943       2.72808632      -2.56740082       0.00000000
Si      -1.03252537      -0.07850151       3.73123724       0.00000000
