10
Lattice="16.2900001489832 0.0 0.0 0.0 16.2900001489832 0.0 0.0 0.0 29.29585470619324" Properties=species:S:1:pos:R:3:initial_magmoms:R:1 pbc="T T T"
Si       0.13077612      -1.49771890       0.05044746       0.00000000
H        0.95329081       1.46634436       1.17505673       0.00000000
Si      -0.55920313      -1.74024443      -2.20673955       0.00000000
Si       2.40002201      -1.78595417       0.51384929       0.00000000
Si      -1.07112778      -2.03307347       2.02449004       0.00000000
Si       0.47895858       1.61469739       2.61392264       0.00000000
Si      -0.59732824       1.84186145      -2.43630187       0.00000000
Si       0.71544052       2.98022295      -0.85570262       0.00000000
Si       0.68861089       0.05030352      -3.23200658       0.00000000
Si      -3.17707131       0.90929152       0.82467831       0.00000000
