10
Lattice="16.2900001489832 0.0 0.0 0.0 16.2900001489832 0.0 0.0 0.0 29.29585470619324" Properties=species:S:1:pos:R:3:initial_magmoms:R:1 pbc="T T T"
H        0.84299122       1.07614999       0.65795560       0.00000000
Si       1.58061871      -0.75217447      -1.55060029       0.00000000
Si      -1.48693492       1.29399616      -1.28093195       0.00000000
Si      -1.04071614      -1.50195430       1.65249128       0.00000000
H       -0.63658063       1.34488612       2.31598379       0.00000000
H        1.81846901      -2.26605305       0.48015906       0.00000000
Si       1.34413678      -2.11770002       1.91902496       0.00000000
H        0.69682105       1.86305474      -2.58787862       0.00000000
Si       0.64027846       1.57455883       3.10128848       0.00000000
Si       2.23502060      -0.15840396       2.79122115       0.00000000
