10
Lattice="16.2900001489832 0.0 0.0 0.0 16.2900001489832 0.0 0.0 0.0 29.29585470619324" Properties=species:S:1:pos:R:3:initial_magmoms:R:1 pbc="T T T"
Si       1.35998695      -1.39657429      -1.32449489       0.00000000
Si      -1.45749401      -1.44049213       1.17271306       0.00000000
Si      -1.32936827       1.43619157      -1.36524542       0.00000000
Si       1.42886107       1.27863469       1.42172783       0.00000000
Si       2.43672338      -0.32718465       2.85590640       0.00000000
Si       2.78374926       2.57829977      -0.12890176       0.00000000
Si      -2.71427240      -0.08754246       2.66486813       0.00000000
Si       0.04072500       2.48020139       2.91244740       0.00000000
Si      -2.62955577       2.79929383       0.01526314       0.00000000
Si       2.74831851      -2.72093501       0.09327800       0.00000000
