10
Lattice="16.2900001489832 0.0 0.0 0.0 16.2900001489832 0.0 0.0 0.0 29.29585470619324" Properties=species:S:1:pos:R:3:initial_magmoms:R:1 pbc="T T T"
Si      -0.84299122      -1.07614999      -0.65795560       0.00000000
H       -1.47957184       0.26873613       1.65802819       0.00000000
Si      -0.20271276       0.49840884       2.44333287       0.00000000
Si       1.39202938      -1.23455395       2.13326555       0.00000000
Si       0.73762750      -1.82832446      -2.20855589       0.00000000
Si       0.83295658       2.40564206       1.59401675       0.00000000
Si      -2.32992614       0.21784617      -1.93888755       0.00000000
Si       2.65678499       1.60850719       0.21966032       0.00000000
Si      -1.43555138       2.38527956      -1.55156706       0.00000000
Si       3.12438945      -0.72733222       0.57138635       0.00000000
