10
Lattice="10.86 0.0 0.0 0.0 10.86 0.0 0.0 0.0 10.86" Properties=species:S:1:pos:R:3:initial_magmoms:R:1 pbc="T T T"
Si       1.39916982       1.80562704       0.41864214       0.00000000
Si      -1.67299386      -1.57449366       0.92761776       0.00000000
Si       1.04200614      -1.57449366      -1.78738224       0.00000000
Si      -1.67299386       1.14050634      -1.78738224       0.00000000
Si      -0.12912540       2.54142462       1.94830572       0.00000000
Si       2.40052698      -0.03544704       2.16919812       0.00000000
Si      -0.31549386      -2.93199366       2.28511776       0.00000000
Si      -3.03049386      -0.21699366       2.28511776       0.00000000
Si       2.39950614      -2.93199366      -0.42988224       0.00000000
Si       2.27265048      -0.16627746      -3.12132690       0.00000000
