10
Lattice="10.86 0.0 0.0 0.0 10.86 0.0 0.0 0.0 10.86" Properties=species:S:1:pos:R:3:initial_magmoms:R:1 pbc="T T T"
Si       1.01910240       1.33074096      -1.85076120       0.00000000
Si      -0.03531672      -1.86713808       1.79731914       0.00000000
Si      -1.99497114       1.48593036       0.90773310       0.00000000
Si      -1.53281298      -1.11200970      -1.87530480       0.00000000
Si      -0.39248040       2.89774122       2.30629476       0.00000000
Si       2.32251960       2.89774122      -0.40870524       0.00000000
Si       3.45693348       1.47171462       0.80839668       0.00000000
Si      -1.56361194      -1.13134050       3.32698272       0.00000000
Si      -3.10748040       0.18274122       2.30629476       0.00000000
Si       2.32251960       0.18274122      -3.12370524       0.00000000
