10
Lattice="16.28999089631971 0.0 0.0 0.0 16.28999089631971 0.0 0.0 0.0 34.51007289658418" Properties=species:S:1:pos:R:3:initial_magmoms:R:1 pbc="T T T"
Si       0.95816151       2.11892079       0.23887886       0.00000000
Si      -1.18003131      -0.43021890       1.99813434       0.00000000
Si       1.84702536      -1.19930238       0.86406369       0.00000000
Si      -0.49331007      -0.70796340      -2.25081723       0.00000000
Si       0.89119332      -1.05968079       3.07622962       0.00000000
Si       3.01954698       1.71317110      -0.68078059       0.00000000
Si       1.67394411      -3.17933559      -0.35866339       0.00000000
Si      -2.58980863      -2.19426300       1.39717559       0.00000000
Si      -0.07885989       3.46772465      -1.29053941       0.00000000
Si       2.36294595       1.06469811      -2.82527223       0.00000000
