10
Lattice="16.28999089631971 0.0 0.0 0.0 16.28999089631971 0.0 0.0 0.0 34.51007289658418" Properties=species:S:1:pos:R:3:initial_magmoms:R:1 pbc="T T T"
Si      -1.73685513      -0.25265790       1.48817871       0.00000000
Si       1.40977732       1.76404410       0.60095875       0.00000000
Si      -0.95319210       0.33185988      -2.11118940       0.00000000
Si       0.89170157      -2.07754515      -0.60661840       0.00000000
Si       2.58980863       2.19426300      -1.39717559       0.00000000
Si       0.69322258      -0.37204731      -3.62773540       0.00000000
Si       2.18366635      -1.81141542      -2.51219667       0.00000000
Si      -3.25154820       1.59242895       1.30348069       0.00000000
Si      -2.66387016      -1.18654731      -2.52689797       0.00000000
Si      -3.26956494      -1.94390199       0.95934605       0.00000000
