10
Lattice="16.28999089631971 0.0 0.0 0.0 16.28999089631971 0.0 0.0 0.0 34.51007289658418" Properties=species:S:1:pos:R:3:initial_magmoms:R:1 pbc="T T T"
Si      -1.34711784      -1.35055503       1.39015969       0.00000000
Si       1.37577195       1.35721764       1.39116048       0.00000000
Si       1.16437662      -1.59939781      -1.38252606       0.00000000
Si      -1.51552386       1.36493910      -1.49596073       0.00000000
Si      -2.70837540      -2.71287863      -0.00198778       0.00000000
Si      -2.70910845       2.71355562       0.02565135       0.00000000
Si       2.71671588       2.71606428       0.03850636       0.00000000
Si      -2.70003492       0.00048870       2.75382598       0.00000000
Si       0.01650177      -2.71606172       2.75220401       0.00000000
Si       0.01501938       2.71650411       2.75178989       0.00000000
