10
Lattice="16.28999089631971 0.0 0.0 0.0 16.28999089631971 0.0 0.0 0.0 34.51007289658418" Properties=species:S:1:pos:R:3:initial_magmoms:R:1 pbc="T T T"
Si      -2.06138547       0.40574969       0.91965945       0.00000000
Si      -0.65660103      -0.64847299      -2.14449164       0.00000000
Si       0.85643046       2.18746030      -0.40721909       0.00000000
Si       0.95421933      -1.95947590       1.01231904       0.00000000
Si       2.04328728       2.01892396       1.60026748       0.00000000
Si      -1.17252162      -2.91247348       1.54484428       0.00000000
Si       1.36616085      -0.31891748      -3.24432828       0.00000000
Si      -3.01954698      -1.71317110       0.68078059       0.00000000
Si      -3.09840687       1.75455355      -0.60975882       0.00000000
Si       1.91176182       1.88930443      -2.51223118       0.00000000
