10
Lattice="16.28999089631971 0.0 0.0 0.0 16.28999089631971 0.0 0.0 0.0 34.51007289658418" Properties=species:S:1:pos:R:3:initial_magmoms:R:1 pbc="T T T"
Si       0.02700882      -1.84942488       1.42630211       0.00000000
Si       1.85360652       0.05491359      -1.50367374       0.00000000
Si      -2.35496059      -0.39185595      -0.51257840       0.00000000
Si       0.19797237       2.03214492       1.36166471       0.00000000
Si      -1.47233907      -1.33431390      -2.76339563       0.00000000
Si      -0.48078306      -0.79431669       3.44265778       0.00000000
Si      -3.32713313       1.21376790       0.97035477       0.00000000
Si       0.97785612       1.75453074      -3.16723273       0.00000000
Si      -0.66777597       3.73601376      -0.01366600       0.00000000
Si       3.90694473       0.56604492      -0.38896325       0.00000000
