10
Lattice="16.28999089631971 0.0 0.0 0.0 16.28999089631971 0.0 0.0 0.0 34.51007289658418" Properties=species:S:1:pos:R:3:initial_magmoms:R:1 pbc="T T T"
Si       1.88261901      -0.21833487       1.41577653       0.00000000
Si      -1.87866054       0.34378416       1.40587214       0.00000000
Si      -0.22631697      -2.16401247      -0.94505887       0.00000000
Si       0.42968133       1.89827370      -1.37443344       0.00000000
Si       0.39612393      -3.38962320       0.98408979       0.00000000
Si       0.96848937       0.15462468       3.53586953       0.00000000
Si       3.30501294       1.50399054       0.69002929       0.00000000
Si      -1.24949187      -0.73609623       3.40628414       0.00000000
Si       2.58616782      -2.48567481       1.11122497       0.00000000
Si       2.13978924       1.27187433      -2.89415437       0.00000000
