10
Lattice="16.28999089631971 0.0 0.0 0.0 16.28999089631971 0.0 0.0 0.0 34.51007289658418" Properties=species:S:1:pos:R:3:initial_magmoms:R:1 pbc="T T T"
Si      -0.82604961      -1.68621048       1.36345923       0.00000000
Si      -1.67151690       0.47687346      -1.58370264       0.00000000
Si       1.01820645       1.64180394       1.41494829       0.00000000
Si       1.43855361      -1.23142626      -1.48969715       0.00000000
Si       1.17810909      -1.54875546       2.62093797       0.00000000
Si       1.70601912       2.81251737      -0.52983345       0.00000000
Si       2.75799474       0.23281668       2.19076967       0.00000000
Si       1.00009197       0.02295261      -3.38868399       0.00000000
Si       0.95588091       2.30353632      -2.70231277       0.00000000
Si      -3.65153382       0.25787070      -0.41325835       0.00000000
