10
Lattice="16.28999089631971 0.0 0.0 0.0 16.28999089631971 0.0 0.0 0.0 34.51007289658418" Properties=species:S:1:pos:R:3:initial_magmoms:R:1 pbc="T T T"
Si      -1.85833062       1.49851710       0.06111737       0.00000000
Si       1.16214489       0.15882750      -2.10697917       0.00000000
Si      -0.60786135      -2.36408625       0.06325700       0.00000000
Si       0.78754005      -1.91850588       2.21056574       0.00000000
Si      -2.71120986       0.54745803      -1.98270833       0.00000000
Si      -0.84201381       0.02137248      -3.36445791       0.00000000
Si       2.25196218      -1.83487302      -2.44876712       0.00000000
Si       1.83923874      -0.03854214       3.34443657       0.00000000
Si      -2.74802526       1.70583993       2.21790017       0.00000000
Si       0.67287474      -3.46734605      -1.78061723       0.00000000
