10
Lattice="16.28999089631971 0.0 0.0 0.0 16.28999089631971 0.0 0.0 0.0 34.51007289658418" Properties=species:S:1:pos:R:3:initial_magmoms:R:1 pbc="T T T"
Si       1.28697516       0.72492129      -1.76991910       0.00000000
Si       1.61516979      -0.22473684       1.67470575       0.00000000
Si      -1.55761722       1.86134427       0.13365759       0.00000000
Si      -0.82130922      -2.36784924      -0.26955833       0.00000000
Si      -1.71100386      -2.16052641       1.88722446       0.00000000
Si       0.13986594      -1.34534223       3.13714825       0.00000000
Si      -0.32904171       2.07940221      -2.74565744       0.00000000
Si      -2.34572742       0.82725507      -2.51288687       0.00000000
Si      -3.61222605       0.84413151      -0.22680033       0.00000000
Si      -3.44098557      -0.36448875       1.80244939       0.00000000
