10
Lattice="16.28999089631971 0.0 0.0 0.0 16.28999089631971 0.0 0.0 0.0 34.51007289658418" Properties=species:S:1:pos:R:3:initial_magmoms:R:1 pbc="T T T"
Si       1.34838846       1.34402274       1.35382056       0.00000000
Si       1.32348105      -1.38709350      -1.35267483       0.00000000
Si      -1.39585752       1.31615055      -1.36504325       0.00000000
Si      -1.36609569      -1.37398005       1.34874758       0.00000000
Si      -0.52738875      -2.20227768      -2.60259862       0.00000000
Si      -2.25737046      -0.40624002      -2.68737369       0.00000000
Si       2.68600923       2.69563662      -0.00948337       0.00000000
Si      -0.00669519       2.69798238       2.70861776       0.00000000
Si      -2.72836323       2.68361460      -0.00646374       0.00000000
Si       2.70589932      -0.01464471       2.70847972       0.00000000
