10
Lattice="16.28999089631971 0.0 0.0 0.0 16.28999089631971 0.0 0.0 0.0 34.51007289658418" Properties=species:S:1:pos:R:3:initial_magmoms:R:1 pbc="T T T"
Si       0.20992923      -1.39129632      -1.84225574       0.00000000
Si      -0.81192618      -1.89473877       1.14886651       0.00000000
Si       2.00200842       0.82231920       1.01107806       0.00000000
Si      -1.66127049       1.91242971      -0.24992558       0.00000000
Si      -2.14443189      -0.52727472       2.50744601       0.00000000
Si       0.60123132       2.20929867       2.49035316       0.00000000
Si       0.38320596       0.37910088      -3.34441103       0.00000000
Si      -3.36861073       0.94573224       1.12919575       0.00000000
Si      -1.84467960      -2.40850908      -2.20271365       0.00000000
Si      -0.57954933       3.70504647       1.07084954       0.00000000
