10
Lattice="16.28999089631971 0.0 0.0 0.0 16.28999089631971 0.0 0.0 0.0 34.51007289658418" Properties=species:S:1:pos:R:3:initial_magmoms:R:1 pbc="T T T"
Si       1.35708732       1.35661491      -1.38240527       0.00000000
Si      -1.35739683      -1.35956340      -1.38078330       0.00000000
Si      -1.39603671       1.32945948       1.47126876       0.00000000
Si       1.45085256      -1.33525872       1.46326242       0.00000000
Si       2.70558981      -2.69949735      -0.02153430       0.00000000
Si       2.70414000       2.70414000      -0.01104323       0.00000000
Si      -2.71116425       2.70181053      -0.00980087       0.00000000
Si      -2.70784109      -2.71059084      -0.02367392       0.00000000
Si       0.00035838       2.71161711      -2.74086054       0.00000000
Si       2.71389771      -0.00096111      -2.73965269       0.00000000
