10
Lattice="16.28999089631971 0.0 0.0 0.0 16.28999089631971 0.0 0.0 0.0 34.51007289658418" Properties=species:S:1:pos:R:3:initial_magmoms:R:1 pbc="T T T"
Si       0.92406654       1.74721653       1.20460928       0.00000000
Si       1.45326348      -1.26697104      -1.36235491       0.00000000
Si      -1.28801772       1.45270962      -1.37874720       0.00000000
Si      -1.29134088      -1.22930856       1.60775617       0.00000000
Si       1.63040094       0.60385401       3.13468971       0.00000000
Si      -2.54130516      -2.58668910       0.09555845       0.00000000
Si       0.08399124      -2.61552240      -2.74817668       0.00000000
Si      -2.63507040       0.10518453      -2.75010925       0.00000000
Si      -2.55098142       2.83664286       0.12620341       0.00000000
Si       2.74835106       2.72922660       0.07975282       0.00000000
