10
Lattice="16.28999089631971 0.0 0.0 0.0 16.28999089631971 0.0 0.0 0.0 34.51007289658418" Properties=species:S:1:pos:R:3:initial_magmoms:R:1 pbc="T T T"
Si       0.17308125       1.98003321       1.22272708       0.00000000
Si       0.46586142      -1.51630578       1.73285526       0.00000000
Si      -2.08008639      -0.82634283      -0.75635769       0.00000000
Si       1.30937391       0.38304306      -1.93239261       0.00000000
Si      -1.36536264      -2.88030006      -1.68947607       0.00000000
Si      -1.67394411       3.17933559       0.35866339       0.00000000
Si      -0.04808808       2.07704016      -2.97121541       0.00000000
Si      -1.74045618      -2.01277611       2.51091980       0.00000000
Si       3.21046578       1.50796530      -1.05863159       0.00000000
Si       1.47636270      -3.36535110       0.59799088       0.00000000
