10
Lattice="16.28999089631971 0.0 0.0 0.0 16.28999089631971 0.0 0.0 0.0 34.51007289658418" Properties=species:S:1:pos:R:3:initial_magmoms:R:1 pbc="T T T"
Si      -1.56751569       1.66397463      -0.49694533       0.00000000
Si      -0.76862687      -2.04362937      -0.90899583       0.00000000
Si       2.13271612       0.32780367      -1.01683987       0.00000000
Si       0.26283426       0.27222219       2.36114600       0.00000000
Si       0.18711346      -3.61998498       0.59678302       0.00000000
Si       2.24531260      -2.59191819       1.37502011       0.00000000
Si      -0.09592529      -1.95550047      -3.15698323       0.00000000
Si       3.36687910      -1.59708789      -0.40086923       0.00000000
Si      -1.73658960       1.73881089      -2.86696042       0.00000000
Si      -3.24318654       1.53445284       1.24860965       0.00000000
