10
Lattice="16.28999089631971 0.0 0.0 0.0 16.28999089631971 0.0 0.0 0.0 34.51007289658418" Properties=species:S:1:pos:R:3:initial_magmoms:R:1 pbc="T T T"
Si      -1.36653552       1.21619511       1.47115488       0.00000000
Si      -1.05169869      -1.87996374      -1.13387084       0.00000000
Si       1.35536058      -1.46929284       1.45806520       0.00000000
Si       1.46142477       1.43518158      -1.51930133       0.00000000
Si      -2.73639420       2.55956625       0.12338738       0.00000000
Si      -1.83923874       0.03854214      -3.34443657       0.00000000
Si       0.00531054       2.57359194       2.82522391       0.00000000
Si       0.86820813      -3.55666249      -1.19668507       0.00000000
Si       2.76988644       2.76030792      -0.04128787       0.00000000
Si      -2.70747945      -0.14265153       2.82380900       0.00000000
