10
Lattice="16.28999089631971 0.0 0.0 0.0 16.28999089631971 0.0 0.0 0.0 34.51007289658418" Properties=species:S:1:pos:R:3:initial_magmoms:R:1 pbc="T T T"
Si      -1.71010791       0.62639937       1.51972093       0.00000000
Si       1.93315059      -0.44121465       1.48041393       0.00000000
Si       0.77133150       1.97198595      -1.28487975       0.00000000
Si      -0.58940478      -2.16821529      -1.05483548       0.00000000
Si       0.23780142      -1.15320168      -3.10073178       0.00000000
Si       1.16522370       0.23211621       3.58418366       0.00000000
Si      -2.13978924      -1.27187433       2.89415437       0.00000000
Si      -1.30282533       2.82841641       2.39272273       0.00000000
Si      -3.71876265       1.22575734       0.36808464       0.00000000
Si       2.83182102       2.72525184      -0.50812660       0.00000000
