10
Lattice="16.28999089631971 0.0 0.0 0.0 16.28999089631971 0.0 0.0 0.0 34.51007289658418" Properties=species:S:1:pos:R:3:initial_magmoms:R:1 pbc="T T T"
Si      -2.21223087       0.72018090       0.17082496       0.00000000
Si       0.20470014      -2.15870193       0.91696766       0.00000000
Si       0.51020280       0.63682497      -2.23939439       0.00000000
Si       1.15522164       1.23103530       1.68533486       0.00000000
Si       2.34747045       1.96708266      -1.72812738       0.00000000
Si       2.00878506       2.93571864       0.30972808       0.00000000
Si      -2.96236908       0.21119985      -2.00165437       0.00000000
Si      -2.90004354      -0.45053253       2.11560669       0.00000000
Si      -1.16025525      -1.85951979       2.89142807       0.00000000
Si       2.68651422      -0.38568204       2.59070713       0.00000000
