10
Lattice="16.28999089631971 0.0 0.0 0.0 16.28999089631971 0.0 0.0 0.0 34.51007289658418" Properties=species:S:1:pos:R:3:initial_magmoms:R:1 pbc="T T T"
Si      -0.70633440       1.14336252      -1.93008044       0.00000000
Si      -1.39758426       0.42407757       1.94315976       0.00000000
Si       0.89039511      -2.28705084      -0.16551040       0.00000000
Si       2.26729107       0.86170842       0.47427220       0.00000000
Si       2.95088463      -1.53378495       0.61124275       0.00000000
Si      -1.63040094      -0.60385401      -3.13468971       0.00000000
Si      -0.20965230       2.43465453       2.82040630       0.00000000
Si      -2.92174182      -1.83316257      -1.52693354       0.00000000
Si       2.06708697       1.72895544       2.68743892       0.00000000
Si       1.11795012       2.12537259      -3.05493689       0.00000000
