10
Lattice="16.28999089631971 0.0 0.0 0.0 16.28999089631971 0.0 0.0 0.0 34.51007289658418" Properties=species:S:1:pos:R:3:initial_magmoms:R:1 pbc="T T T"
Si      -1.35767376       1.35804843       1.36131961       0.00000000
Si       1.36280511      -1.35956340       1.36035332       0.00000000
Si      -1.37565792      -1.36283769      -1.35705761       0.00000000
Si       1.38140829       1.37143881      -1.35291295       0.00000000
Si       2.73357603      -0.02124216      -2.65429888       0.00000000
Si      -2.70712107       2.70793557       0.00555612       0.00000000
Si      -2.71327869      -2.71445157       0.00624633       0.00000000
Si       2.71692765       2.71305063       0.00752320       0.00000000
Si      -2.71148679      -0.00187335       2.71884310       0.00000000
Si       0.00255753       2.71270854       2.71870506       0.00000000
