10
Lattice="16.28999089631971 0.0 0.0 0.0 16.28999089631971 0.0 0.0 0.0 34.51007289658418" Properties=species:S:1:pos:R:3:initial_magmoms:R:1 pbc="T T T"
Si      -1.35685926       1.35789439       1.35666074       0.00000000
Si       1.35803214      -1.35708732       1.35690231       0.00000000
Si       1.35883035       1.35632284      -1.35690231       0.00000000
Si      -1.36023129      -1.35466011      -1.35738546       0.00000000
Si      -2.70967860      -0.00477297      -2.71314894       0.00000000
Si       2.71437012       0.00034209      -2.71118186       0.00000000
Si      -0.00060273       2.71457604       2.71363208       0.00000000
Si       2.71440270       0.00100998       2.71421875       0.00000000
Si      -2.71404432      -2.71458189       0.00013804       0.00000000
Si      -0.00011403      -2.71464705       2.71459836       0.00000000
