10
Lattice="16.28999089631971 0.0 0.0 0.0 16.28999089631971 0.0 0.0 0.0 34.51007289658418" Properties=species:S:1:pos:R:3:initial_magmoms:R:1 pbc="T T T"
Si      -1.36169746      -1.35493704       1.38921756       0.00000000
Si       1.35367843       1.36449927       1.39163327       0.00000000
Si      -1.26882817       1.41248961      -1.50706263       0.00000000
Si       1.34126382      -1.43369919      -1.46540204       0.00000000
Si      -2.70208753       2.69736336       0.02667975       0.00000000
Si       2.70574354       2.70443322       0.03624940       0.00000000
Si       2.70162217      -2.71215468       0.02495080       0.00000000
Si      -2.72059297      -2.70029556       0.00090071       0.00000000
Si      -0.00361541      -2.71122615       2.75102031       0.00000000
Si       2.71144504       0.00544086       2.75184855       0.00000000
