10
Lattice="16.28999089631971 0.0 0.0 0.0 16.28999089631971 0.0 0.0 0.0 34.51007289658418" Properties=species:S:1:pos:R:3:initial_magmoms:R:1 pbc="T T T"
Si      -1.35537687      -1.34005842      -1.38692609       0.00000000
Si       1.36010097       1.37694157      -1.38309547       0.00000000
Si      -1.40181966       1.33170424       1.42267855       0.00000000
Si       1.23075837      -1.49261427       1.54066856       0.00000000
Si      -2.69679321      -2.68965234      -0.01052558       0.00000000
Si       2.70456354      -2.68338069      -0.01694446       0.00000000
Si      -2.70288567       2.72409199      -0.03823718       0.00000000
Si       2.71876842       2.72166478      -0.01328639       0.00000000
Si       0.00131949      -2.69763444      -2.74524332       0.00000000
Si      -2.71368594       0.01593162      -2.74582999       0.00000000
