10
Lattice="16.28999089631971 0.0 0.0 0.0 16.28999089631971 0.0 0.0 0.0 34.51007289658418" Properties=species:S:1:pos:R:3:initial_magmoms:R:1 pbc="T T T"
Si       1.35697654       1.35628911      -1.35717840       0.00000000
Si      -1.35796698      -1.35879777      -1.35731644       0.00000000
Si      -1.36112724       1.35508365       1.35955959       0.00000000
Si       1.35697396      -1.35993807       1.36187177       0.00000000
Si      -0.00061902       2.71362078      -2.71490895       0.00000000
Si      -2.71590138       2.71300176      -0.00093177       0.00000000
Si       2.71469007      -0.00184077      -2.71487444       0.00000000
Si       2.71537263       2.71510317      -0.00024157       0.00000000
Si       2.71517552      -2.71538010       0.00027608       0.00000000
Si      -2.71591767      -0.00123804      -2.71501248       0.00000000
