10
Lattice="16.28999089631971 0.0 0.0 0.0 16.28999089631971 0.0 0.0 0.0 34.51007289658418" Properties=species:S:1:pos:R:3:initial_magmoms:R:1 pbc="T T T"
Si      -1.35855342       1.36068741      -1.29069125       0.00000000
Si      -1.37373570      -1.33527501       1.36847355       0.00000000
Si       1.33973847       1.37925801       1.36364214       0.00000000
Si       1.43325936      -1.28487375      -1.53374238       0.00000000
Si       0.51328161       2.14001730      -2.70683846       0.00000000
Si       2.70208753      -2.69736336      -0.02667975       0.00000000
Si      -0.01835883      -2.69249265       2.72451311       0.00000000
Si      -2.73497697      -2.68273494      -0.00552507       0.00000000
Si       2.56518630       0.44496135      -2.81054129       0.00000000
Si       2.69761023       0.02132361       2.72468566       0.00000000
