10
Lattice="16.28999089631971 0.0 0.0 0.0 16.28999089631971 0.0 0.0 0.0 34.51007289658418" Properties=species:S:1:pos:R:3:initial_magmoms:R:1 pbc="T T T"
Si      -1.37337732      -1.33752303       1.34837832       0.00000000
Si      -1.35477414       1.35791811      -1.36049136       0.00000000
Si       1.36112724      -1.35508365      -1.35955959       0.00000000
Si       1.36765953       1.37969784       1.37546874       0.00000000
Si      -0.06160878      -2.69490357       2.66404108       0.00000000
Si      -2.70686043       2.71629234       0.00182903       0.00000000
Si      -2.71443528      -2.71050939      -0.00262277       0.00000000
Si      -2.71158453       0.00039096      -2.71670348       0.00000000
Si       0.00316026      -2.71388142      -2.71687603       0.00000000
Si       2.71403782       2.71841004      -0.00231218       0.00000000
