10
Lattice="16.28999089631971 0.0 0.0 0.0 16.28999089631971 0.0 0.0 0.0 34.51007289658418" Properties=species:S:1:pos:R:3:initial_magmoms:R:1 pbc="T T T"
Si      -2.06048952      -0.75326589      -0.77675315       0.00000000
Si       0.27531729      -0.90500724      -2.17682759       0.00000000
Si       0.80741385      -1.53472977       1.71615237       0.00000000
Si      -0.68359356       2.39549337      -0.13697056       0.00000000
Si      -2.95088463       1.53378495      -0.61124275       0.00000000
Si       1.09931436       1.00341513      -3.47116311       0.00000000
Si      -0.89867043      -3.16646649       1.98854053       0.00000000
Si       2.82567969      -2.63753019       0.69265206       0.00000000
Si      -2.83182102      -2.72525184       0.50812660       0.00000000
Si      -0.88379766       3.26274039       2.07619617       0.00000000
