10
Lattice="16.28999089631971 0.0 0.0 0.0 16.28999089631971 0.0 0.0 0.0 34.51007289658418" Properties=species:S:1:pos:R:3:initial_magmoms:R:1 pbc="T T T"
Si      -0.26700939      -1.72599066       1.44838857       0.00000000
Si      -1.97021034       1.04412384      -0.64030025       0.00000000
Si       1.71067806       1.51840719       0.41570857       0.00000000
Si       0.07929972      -0.90357372      -2.15346426       0.00000000
Si      -2.17974861      -0.26450073      -2.60954964       0.00000000
Si       1.90066833      -2.54606184       1.52696805       0.00000000
Si      -1.09524186       2.96953668      -1.62204335       0.00000000
Si       0.59362389       3.52500939      -0.07623279       0.00000000
Si      -0.60569478      -0.75735468       3.48624402       0.00000000
Si       3.35709274       0.81450000      -1.10083743       0.00000000
