10
Lattice="16.28999089631971 0.0 0.0 0.0 16.28999089631971 0.0 0.0 0.0 34.51007289658418" Properties=species:S:1:pos:R:3:initial_magmoms:R:1 pbc="T T T"
Si       0.59616513       2.21549606       0.59353908       0.00000000
Si       1.30067505      -0.62538939      -1.91037517       0.00000000
Si      -2.31207228      -0.17438445      -0.69196186       0.00000000
Si       0.11937312      -1.37142252       1.99623628       0.00000000
Si      -0.26417493       2.13113015       2.77933929       0.00000000
Si      -2.44770282      -2.53954584      -0.52003258       0.00000000
Si      -0.38819070      -1.18086210      -3.45618573       0.00000000
Si      -1.40680440      -3.10432014       1.48859283       0.00000000
Si      -0.81744849       3.65263244      -0.79338702       0.00000000
Si      -2.35447515       0.11137473      -3.03554222       0.00000000
