10
Lattice="16.28999089631971 0.0 0.0 0.0 16.28999089631971 0.0 0.0 0.0 34.51007289658418" Properties=species:S:1:pos:R:3:initial_magmoms:R:1 pbc="T T T"
Si       1.35755973      -1.35711013      -1.36166471       0.00000000
Si      -1.35689184       1.35990549      -1.36011175       0.00000000
Si      -1.37309387      -1.34483072       1.36038783       0.00000000
Si       1.36334268       1.36453185       1.38495902       0.00000000
Si      -0.00687438      -2.62898071       2.72902358       0.00000000
Si       2.71246419      -2.71208042      -0.00348552       0.00000000
Si       2.70980892       2.71810053      -0.00106981       0.00000000
Si      -2.71509340       2.71534752       0.00148393       0.00000000
Si      -2.72046059      -2.71045142      -0.00362356       0.00000000
Si      -0.00024435      -2.71342287      -2.71766976       0.00000000
