10
Lattice="16.28999089631971 0.0 0.0 0.0 16.28999089631971 0.0 0.0 0.0 34.51007289658418" Properties=species:S:1:pos:R:3:initial_magmoms:R:1 pbc="T T T"
Si      -0.41478168       2.46096288      -0.36722189       0.00000000
Si       1.13448121      -0.46713204      -2.25771925       0.00000000
Si       0.60235533       0.06747318       2.53832081       0.00000000
Si      -1.26361108      -2.55831192       0.56392942       0.00000000
Si       3.14347641      -1.26983808      -1.04337813       0.00000000
Si      -3.28187692      -1.45551150       1.58742973       0.00000000
Si      -0.42199766       1.99252764       3.36473399       0.00000000
Si      -4.08929077       0.07921827      -0.12872264       0.00000000
Si       1.71583710       3.60613359      -1.15032490       0.00000000
Si       2.76532035      -0.58810158       3.08623754       0.00000000
