10
Lattice="16.28999089631971 0.0 0.0 0.0 16.28999089631971 0.0 0.0 0.0 34.51007289658418" Properties=species:S:1:pos:R:3:initial_magmoms:R:1 pbc="T T T"
Si      -1.29196479      -0.26612973       1.90557827       0.00000000
Si      -1.49044378       1.43936811      -1.11553873       0.00000000
Si       2.08008639       0.82634283       0.75635769       0.00000000
Si       0.71472375      -2.05395723      -0.93311838       0.00000000
Si      -0.08716779       3.29771502      -1.13579615       0.00000000
Si       0.33963021      -1.18643328       3.26727749       0.00000000
Si       2.54594781      -0.68996295       2.48921295       0.00000000
Si       3.38946030       1.20938589      -1.17603492       0.00000000
Si      -2.18366635       1.81141542       2.51219667       0.00000000
Si      -3.13685846       2.14327530       0.40100727       0.00000000
