10
Lattice="16.28999089631971 0.0 0.0 0.0 16.28999089631971 0.0 0.0 0.0 34.51007289658418" Properties=species:S:1:pos:R:3:initial_magmoms:R:1 pbc="T T T"
Si      -1.63159500       0.92030355      -1.36169922       0.00000000
Si      -0.47669427      -2.16700983      -0.72895668       0.00000000
Si      -0.37642932       0.49389651       2.26341342       0.00000000
Si       2.20631760       0.49647033      -0.77806454       0.00000000
Si      -2.69288687      -2.17561095       0.00528004       0.00000000
Si      -0.33963021       1.18643328      -3.26727749       0.00000000
Si       1.20330972      -0.98806995       3.14090153       0.00000000
Si       1.74045618       2.01277611      -2.51091980       0.00000000
Si       0.56179323       2.57126247       2.71011205       0.00000000
Si      -3.28649840      -0.73476045      -1.75501074       0.00000000
