10
Lattice="16.28999089631971 0.0 0.0 0.0 16.28999089631971 0.0 0.0 0.0 34.49183129400761" Properties=species:S:1:pos:R:3:initial_magmoms:R:1 pbc="T T T"
Si       1.27736732      -1.35558864      -1.45483177       0.00000000
Si      -2.06370258      -1.15463520       0.06684521       0.00000000
Si      -0.04697221       2.22385120      -0.81642210       0.00000000
Si       1.32198563      -0.09684405       2.05226511       0.00000000
Si       3.34504073      -0.90222165      -0.45649964       0.00000000
Si      -1.32138357      -3.36945618       0.10733864       0.00000000
Si      -0.33461761       3.41390900       1.18451913       0.00000000
Si      -0.17998821      -1.21419144       3.50071588       0.00000000
Si       2.12938319       2.58058428      -1.63760408       0.00000000
Si       3.56555846       1.43197245      -0.13182785       0.00000000
