10
Lattice="16.28999089631971 0.0 0.0 0.0 16.28999089631971 0.0 0.0 0.0 34.49183129400761" Properties=species:S:1:pos:R:3:initial_magmoms:R:1 pbc="T T T"
Si       1.50197384       1.11734739      -1.44845077       0.00000000
Si      -1.92724125       1.40304141      -0.01441759       0.00000000
Si       1.26634388      -0.95319306       1.81944512       0.00000000
Si      -0.14137896      -2.06938386      -1.25088145       0.00000000
Si      -3.15071799       0.01078398      -1.42037441       0.00000000
Si       2.19297935      -2.41636086      -1.39926539       0.00000000
Si       0.17998821       1.21419144      -3.50071588       0.00000000
Si       3.28351340      -0.41285376      -1.76163678       0.00000000
Si       2.70443648      -2.66997987       0.90030628       0.00000000
Si      -1.35533193       3.63250940      -0.52520741       0.00000000
