10
Lattice="16.28999089631971 0.0 0.0 0.0 16.28999089631971 0.0 0.0 0.0 34.49183129400761" Properties=species:S:1:pos:R:3:initial_magmoms:R:1 pbc="T T T"
Si      -1.24898688       1.41902190       1.47752740       0.00000000
Si      -1.18320786      -1.58026032      -1.38985054       0.00000000
Si       1.19268864       1.32346476      -1.64253784       0.00000000
Si       1.45569069      -1.29145491       1.48313578       0.00000000
Si      -2.59763598       0.05745483       2.85397299       0.00000000
Si      -2.55472812       2.90690163       0.04310447       0.00000000
Si       2.73315249      -2.76534153       0.16691986       0.00000000
Si      -0.51028425       2.34530388      -3.07532931       0.00000000
Si       0.11570787      -2.65626369       2.85697378       0.00000000
Si      -2.70627399      -2.82882366      -0.01902226       0.00000000
