10
Lattice="16.28999089631971 0.0 0.0 0.0 16.28999089631971 0.0 0.0 0.0 34.49183129400761" Properties=species:S:1:pos:R:3:initial_magmoms:R:1 pbc="T T T"
Si      -1.34864910      -1.36156707       1.37644559       0.00000000
Si       1.36730115       1.35272160       1.37737687       0.00000000
Si       1.24898688      -1.41902190      -1.47752740       0.00000000
Si      -1.30574124       1.48787973      -1.43442294       0.00000000
Si       2.70467757      -2.71047681       0.00560837       0.00000000
Si      -2.70536175      -2.72432331      -0.01355875       0.00000000
Si       2.71689507       2.71366965       0.00198673       0.00000000
Si      -2.70503595       2.72699487       0.01045793       0.00000000
Si      -2.70720252      -0.00511506       2.73939106       0.00000000
Si       0.00796581       2.71063971       2.73890817       0.00000000
