10
Lattice="16.28999089631971 0.0 0.0 0.0 16.28999089631971 0.0 0.0 0.0 34.49183129400761" Properties=species:S:1:pos:R:3:initial_magmoms:R:1 pbc="T T T"
Si       1.27746180      -1.47388662      -1.31621592       0.00000000
Si      -1.33998282      -1.36480878       1.37383800       0.00000000
Si       1.37945349       1.34620560       1.37111315       0.00000000
Si      -1.45569069       1.29145491      -1.48313578       0.00000000
Si      -2.70467757       2.71047681      -0.00560837       0.00000000
Si      -2.69337231      -2.73313620      -0.01717694       0.00000000
Si      -2.69597871      -0.00902466       2.73323082       0.00000000
Si       0.01858689       2.70585045       2.73305836       0.00000000
Si       2.72652246       2.71718829      -0.01048207       0.00000000
Si       2.71634121      -2.73616614       0.03428835       0.00000000
