10
Lattice="16.28999089631971 0.0 0.0 0.0 16.28999089631971 0.0 0.0 0.0 34.49183129400761" Properties=species:S:1:pos:R:3:initial_magmoms:R:1 pbc="T T T"
Si      -0.81308277      -1.81802053      -1.28720137       0.00000000
Si       1.06533342      -0.59101260       2.04874694       0.00000000
Si       1.88041986       0.96198966      -1.15871923       0.00000000
Si      -1.92351505       1.92692781       0.18073730       0.00000000
Si      -2.18134177      -0.49747379      -2.64504205       0.00000000
Si       0.55280115       2.22405741      -2.63624663       0.00000000
Si      -0.34775892      -2.31752033       2.83078067       0.00000000
Si      -2.37628094      -3.01893515       0.12813722       0.00000000
Si      -0.71581518       3.59805375      -1.16071976       0.00000000
Si      -3.58494749       0.82189566      -1.20231693       0.00000000
