10
Lattice="16.28999089631971 0.0 0.0 0.0 16.28999089631971 0.0 0.0 0.0 34.49183129400761" Properties=species:S:1:pos:R:3:initial_magmoms:R:1 pbc="T T T"
Si       1.69086942       1.14445395       1.10025554       0.00000000
Si       1.46973267      -1.19389410      -1.41157898       0.00000000
Si      -1.25553546       1.51985700      -1.42499631       0.00000000
Si      -0.74919339      -1.69627770       1.59241976       0.00000000
Si       0.64620801       1.29619530       3.14955435       0.00000000
Si      -2.53213389      -2.51955801       0.04828859       0.00000000
Si       0.09404217      -2.54817954      -2.79459872       0.00000000
Si       1.14854274      -3.34777419       1.40374933       0.00000000
Si      -2.62479141       0.17001873      -2.79156343       0.00000000
Si      -2.48008734       3.02098050      -0.08974780       0.00000000
