10
Lattice="16.28999089631971 0.0 0.0 0.0 16.28999089631971 0.0 0.0 0.0 34.49183129400761" Properties=species:S:1:pos:R:3:initial_magmoms:R:1 pbc="T T T"
Si      -1.29235086      -1.73592756      -0.81849161       0.00000000
Si       0.91499301      -0.77530626       1.97910789       0.00000000
Si      -0.76787802       2.23645410       0.06843183       0.00000000
Si       1.13842665      -0.84846465      -2.65225085       0.00000000
Si       2.28607344      -2.05939809       0.37254648       0.00000000
Si       0.47247516      -3.35290554      -0.54376402       0.00000000
Si       1.58791662       3.15025794       0.29362912       0.00000000
Si       0.76072671       1.33481889      -3.35678139       0.00000000
Si      -2.10553137      -1.09217934      -2.92808218       0.00000000
Si      -2.25779400       2.45423511      -1.83665655       0.00000000
