10
Lattice="16.28999089631971 0.0 0.0 0.0 16.28999089631971 0.0 0.0 0.0 34.49183129400761" Properties=species:S:1:pos:R:3:initial_magmoms:R:1 pbc="T T T"
Si      -1.60435323      -0.99748557      -1.36645472       0.00000000
Si      -1.39929471       1.23911514       1.44488087       0.00000000
Si       1.30574124      -1.48787973       1.43442294       0.00000000
Si       1.35555606       1.36409202      -1.73437929       0.00000000
Si      -0.31135077      -1.47540159      -3.34363107       0.00000000
Si       2.04444387      -0.56159775      -3.11843377       0.00000000
Si      -3.41488410       0.74674989      -1.48358904       0.00000000
Si      -2.77797280       2.60239266       0.00056912       0.00000000
Si      -0.04698036       2.57877216       2.81321397       0.00000000
Si       2.80448640       2.60644887      -0.10773530       0.00000000
