10
Lattice="16.28999089631971 0.0 0.0 0.0 16.28999089631971 0.0 0.0 0.0 34.49183129400761" Properties=species:S:1:pos:R:3:initial_magmoms:R:1 pbc="T T T"
Si       0.16174341      -2.38731579       0.21398744       0.00000000
Si      -1.81175751       0.85182039      -1.54526940       0.00000000
Si      -0.76023801       1.07970120       2.31712803       0.00000000
Si       1.20640482      -2.53905714      -1.83531137       0.00000000
Si      -2.31863715      -2.46526344       0.32977658       0.00000000
Si       2.97292500       0.06761979       1.73487110       0.00000000
Si      -0.24202053       2.06744535      -2.85868458       0.00000000
Si       2.42519004      -2.37210093       1.34480276       0.00000000
Si       1.34736219       0.58906269       3.38878983       0.00000000
Si       1.58315994       3.16835613      -1.30537858       0.00000000
