10
Lattice="16.28999089631971 0.0 0.0 0.0 16.28999089631971 0.0 0.0 0.0 34.49183129400761" Properties=species:S:1:pos:R:3:initial_magmoms:R:1 pbc="T T T"
Si      -1.35746199       1.35728280       1.35766822       0.00000000
Si       1.35739683      -1.35782037       1.35721983       0.00000000
Si       1.35796698       1.35752715      -1.35721983       0.00000000
Si      -1.35798327      -1.35765747      -1.35759924       0.00000000
Si       0.00223173      -2.71511946       2.71333592       0.00000000
Si       2.71520091       2.71422351       0.00044839       0.00000000
Si      -2.71529865       2.71472850      -0.00010348       0.00000000
Si       2.71515204      -2.71510317       0.00000000       0.00000000
Si      -0.00013032       2.71508688       2.71547441       0.00000000
Si      -0.00188964       2.71239903      -2.71819927       0.00000000
