10
Lattice="16.28999089631971 0.0 0.0 0.0 16.28999089631971 0.0 0.0 0.0 34.49183129400761" Properties=species:S:1:pos:R:3:initial_magmoms:R:1 pbc="T T T"
Si       1.33460712       1.35482834      -1.37325854       0.00000000
Si      -1.38041460      -1.36028016      -1.37091309       0.00000000
Si      -1.38362373       1.39219180       1.34024984       0.00000000
Si       1.48822182      -1.21121037       1.49532520       0.00000000
Si      -0.08151516      -2.42683533       2.80874038       0.00000000
Si       2.68731243      -2.70493821       0.00217299       0.00000000
Si       2.69638596       2.71136366       0.01552133       0.00000000
Si       2.69503389      -0.00368154      -2.73185804       0.00000000
Si      -0.01948284       2.71201363      -2.73240991       0.00000000
Si      -0.02062314      -2.72020194      -2.73203050       0.00000000
