10
Lattice="16.28999089631971 0.0 0.0 0.0 16.28999089631971 0.0 0.0 0.0 34.49183129400761" Properties=species:S:1:pos:R:3:initial_magmoms:R:1 pbc="T T T"
Si      -1.84414203       0.62050239       1.22822031       0.00000000
Si      -0.54861462      -2.11017402      -1.00609279       0.00000000
Si       0.61524072       2.07431973      -1.04800039       0.00000000
Si       1.92920841      -0.03758103       1.44762297       0.00000000
Si       2.57246793       1.15461891      -1.93223347       0.00000000
Si       0.57883257       3.41443287       0.91027443       0.00000000
Si       3.65822901      -0.03246597      -0.15186762       0.00000000
Si      -1.62362430       2.95469649       1.55289210       0.00000000
Si       1.33638273      -2.63331108      -2.34520440       0.00000000
Si       1.61352450      -0.50828058      -3.40800179       0.00000000
