10
Lattice="16.28999089631971 0.0 0.0 0.0 16.28999089631971 0.0 0.0 0.0 34.49183129400761" Properties=species:S:1:pos:R:3:initial_magmoms:R:1 pbc="T T T"
Si       1.90226475       0.39894373       1.40405976       0.00000000
Si      -1.85313411       1.51212740       0.49602730       0.00000000
Si      -0.39643344      -2.41500783      -0.37492642       0.00000000
Si       0.36445617      -2.22356775      -2.68588040       0.00000000
Si      -2.32860663       0.88422772      -2.54663680       0.00000000
Si       2.51691903       1.12963820      -2.42374234       0.00000000
Si      -0.53849853      -2.76723021       2.52476897       0.00000000
Si       2.62832634       2.59080232       0.94856038       0.00000000
Si      -3.52820223       0.24030519       1.59462724       0.00000000
Si       1.41696936       0.13310885       3.71691080       0.00000000
