10
Lattice="16.28999089631971 0.0 0.0 0.0 16.28999089631971 0.0 0.0 0.0 34.49183129400761" Properties=species:S:1:pos:R:3:initial_magmoms:R:1 pbc="T T T"
Si       1.67506812       1.27182220      -1.09859993       0.00000000
Si      -1.00058067       1.75076449       1.28764977       0.00000000
Si       1.09630071      -1.56372012       1.47238812       0.00000000
Si      -1.69870491      -0.72347524      -1.85328162       0.00000000
Si      -0.31713372       1.23011980      -2.45954488       0.00000000
Si       1.32594084      -0.07060738       3.31708127       0.00000000
Si      -3.24840519       1.31112997       1.60918280       0.00000000
Si       3.52820223      -0.24030519      -1.59462724       0.00000000
Si      -0.22317300       1.67214895       3.49381751       0.00000000
Si      -0.44155674      -3.10595958       2.35058512       0.00000000
