10
Lattice="16.28999089631971 0.0 0.0 0.0 16.28999089631971 0.0 0.0 0.0 34.49183129400761" Properties=species:S:1:pos:R:3:initial_magmoms:R:1 pbc="T T T"
Si       1.36653552       1.34503272       1.38380270       0.00000000
Si      -1.34706897      -1.37098269       1.38159522       0.00000000
Si       1.47800799      -1.30559463      -1.33869081       0.00000000
Si      -1.44093195       1.39211082      -1.50847349       0.00000000
Si      -2.71430496       2.70695817       0.00686043       0.00000000
Si       2.73655710       2.68938126      -0.00033112       0.00000000
Si      -2.72652246      -2.71718829       0.01048207       0.00000000
Si       0.00822645       2.70453096       2.74454069       0.00000000
Si      -2.70793557      -0.01133784       2.74354043       0.00000000
Si       2.74662432      -2.71388142       0.02987339       0.00000000
