10
Lattice="16.28999089631971 0.0 0.0 0.0 16.28999089631971 0.0 0.0 0.0 34.49183129400761" Properties=species:S:1:pos:R:3:initial_magmoms:R:1 pbc="T T T"
Si       0.51564366       1.91081700      -1.53585312       0.00000000
Si       1.77815124      -1.74871521      -0.26375918       0.00000000
Si       0.59557869       0.09275526       2.50248723       0.00000000
Si      -2.02523796      -0.81332712      -1.49087575       0.00000000
Si       1.86098589       0.58546260      -3.03721439       0.00000000
Si       3.29439186      -0.64236357      -1.68064991       0.00000000
Si       0.66365460      -3.37273047      -1.61249401       0.00000000
Si      -0.84709629      -2.16415908      -3.02548716       0.00000000
Si       3.01754331       0.27710919       2.57733455       0.00000000
Si       1.29665142       3.92271345      -0.32725868       0.00000000
