10
Lattice="16.28999089631971 0.0 0.0 0.0 16.28999089631971 0.0 0.0 0.0 34.49183129400761" Properties=species:S:1:pos:R:3:initial_magmoms:R:1 pbc="T T T"
Si       1.20661659       0.01560582       2.04940229       0.00000000
Si       1.88186967       0.74156967      -1.26774797       0.00000000
Si      -1.70631234       1.67923836      -0.13189684       0.00000000
Si      -0.78100776      -2.01189645      -1.20859444       0.00000000
Si       0.57699180       2.05656363      -2.73161660       0.00000000
Si      -2.15236512      -0.66365460      -2.70260895       0.00000000
Si       2.60490132       2.62254339      -0.03438838       0.00000000
Si       2.69529453      -1.84088403       1.81227081       0.00000000
Si      -0.83688246       3.35419245      -1.45662534       0.00000000
Si      -3.50309934       0.70405380      -1.33504157       0.00000000
