10
Lattice="16.28999089631971 0.0 0.0 0.0 16.28999089631971 0.0 0.0 0.0 34.49183129400761" Properties=species:S:1:pos:R:3:initial_magmoms:R:1 pbc="T T T"
Si       1.29432847      -1.37003787       1.53687408       0.00000000
Si       1.08959575       1.84467960      -1.25044483       0.00000000
Si      -1.41872935       1.33633386       1.54223411       0.00000000
Si      -1.18408589      -1.54497618      -1.66372618       0.00000000
Si      -2.63132437       2.64598470      -0.05735650       0.00000000
Si      -2.72336287      -2.59512732       0.08593300       0.00000000
Si       2.54240311      -2.89356012       0.05388317       0.00000000
Si      -0.72093513       3.58891506      -1.36757915       0.00000000
Si       2.69394898       2.84216517       0.11600989       0.00000000
Si       2.65104112      -0.00728163       2.92687841       0.00000000
