10
Lattice="16.28999089631971 0.0 0.0 0.0 16.28999089631971 0.0 0.0 0.0 34.49183129400761" Properties=species:S:1:pos:R:3:initial_magmoms:R:1 pbc="T T T"
Si      -1.35729909       1.35767376      -1.35963426       0.00000000
Si       1.35905841      -1.35658885      -1.36053105       0.00000000
Si      -1.35907470      -1.35080427       1.36684305       0.00000000
Si       1.35959598       1.36449927       1.36898155       0.00000000
Si      -2.55609648       0.14040351       2.78349234       0.00000000
Si       2.71476108      -2.71398635      -0.00548420       0.00000000
Si       2.71632487       2.71360449       0.00068984       0.00000000
Si      -2.71533123      -2.71504520      -0.00317325       0.00000000
Si      -0.00022806      -2.71421394      -2.71757841       0.00000000
Si       2.71477751       0.00052128      -2.71733697       0.00000000
