10
Lattice="16.28999089631971 0.0 0.0 0.0 16.28999089631971 0.0 0.0 0.0 34.49183129400761" Properties=species:S:1:pos:R:3:initial_magmoms:R:1 pbc="T T T"
Si      -0.04388526      -2.34367718       0.15431654       0.00000000
Si      -1.68586839       1.35837912       0.96577182       0.00000000
Si       1.41574761       0.70305685       1.77236374       0.00000000
Si       0.48529539       0.26583488      -2.31285104       0.00000000
Si      -0.51162003       1.39654659       3.07715596       0.00000000
Si       2.12758803      -2.75524403      -0.81459403       0.00000000
Si       2.44224567      -1.01827391      -2.43678026       0.00000000
Si       0.66512070       3.52335270      -0.70911796       0.00000000
Si      -1.95546789      -2.90033906      -1.19214183       0.00000000
Si       2.06322624       2.90071632       1.10908546       0.00000000
