10
Lattice="16.28999089631971 0.0 0.0 0.0 16.28999089631971 0.0 0.0 0.0 34.49183129400761" Properties=species:S:1:pos:R:3:initial_magmoms:R:1 pbc="T T T"
Si      -1.36285398       0.92541861       1.60438843       0.00000000
Si       2.30567031       0.51168519      -0.06667275       0.00000000
Si      -0.56791827       0.18063981      -2.29363908       0.00000000
Si       1.15944075      -1.39074735      -2.93974042       0.00000000
Si      -1.73164329       2.95318152       0.51475638       0.00000000
Si       3.09114383      -1.27613254      -1.41547656       0.00000000
Si      -0.76515759      -3.52767185      -0.47398701       0.00000000
Si       2.53091933       2.69317683      -1.00961096       0.00000000
Si      -2.77482231      -2.56923341      -1.23342858       0.00000000
Si      -2.56512114      -0.89194755      -2.91373357       0.00000000
