10
Lattice="16.28999089631971 0.0 0.0 0.0 16.28999089631971 0.0 0.0 0.0 34.49183129400761" Properties=species:S:1:pos:R:3:initial_magmoms:R:1 pbc="T T T"
Si       1.35643969      -1.35470898      -1.36125537       0.00000000
Si      -1.35672889      -1.34910522       1.36829171       0.00000000
Si      -1.35894433       1.36039419      -1.36125537       0.00000000
Si       1.37147211       1.35902583       1.37170641       0.00000000
Si      -2.64168409       0.15716592       2.71464661       0.00000000
Si       2.71219449      -2.71015101      -0.00213849       0.00000000
Si       2.71172208       2.71666701      -0.00141417       0.00000000
Si      -2.71632487      -2.71360449      -0.00068984       0.00000000
Si      -0.00154737      -2.71308321      -2.71802681       0.00000000
Si       2.71349769       0.00221544      -2.71806130       0.00000000
