10
Lattice="16.28999089631971 0.0 0.0 0.0 16.28999089631971 0.0 0.0 0.0 34.49183129400761" Properties=species:S:1:pos:R:3:initial_magmoms:R:1 pbc="T T T"
Si       2.11064643      -0.66269349       0.70711743       0.00000000
Si      -1.82034234      -1.32014160       0.58984514       0.00000000
Si      -0.23532534       2.17622997       0.78931151       0.00000000
Si       0.81924039       0.06273279      -2.22417249       0.00000000
Si       1.47541788      -2.90514231       0.48799070       0.00000000
Si       3.10463684      -0.02275713      -1.41592496       0.00000000
Si      -1.74750975       1.71325188       2.51114469       0.00000000
Si       0.04803921       2.18724201      -2.85306240       0.00000000
Si      -0.93621888       3.42849114      -1.05907227       0.00000000
Si      -2.83678947      -1.89172512      -1.48470171       0.00000000
