10
Lattice="16.28999089631971 0.0 0.0 0.0 16.28999089631971 0.0 0.0 0.0 34.49183129400761" Properties=species:S:1:pos:R:3:initial_magmoms:R:1 pbc="T T T"
Si       1.35606105      -1.35689184       1.36070350       0.00000000
Si      -1.35830907       1.35949824       1.36073800       0.00000000
Si      -1.36653552      -1.34503272      -1.38380270       0.00000000
Si       1.37002158       1.34434854      -1.38413382       0.00000000
Si      -0.07988616       2.61682560      -2.74921434       0.00000000
Si       0.11147247      -2.65062735      -2.72249350       0.00000000
Si       2.71362078      -2.71458189       0.00513929       0.00000000
Si      -2.71360449      -2.71601541      -0.00220748       0.00000000
Si       2.71420722       2.71560816       0.00068984       0.00000000
Si       2.71305063       0.00110772       2.71750943       0.00000000
