10
Lattice="16.28999089631971 0.0 0.0 0.0 16.28999089631971 0.0 0.0 0.0 34.49183129400761" Properties=species:S:1:pos:R:3:initial_magmoms:R:1 pbc="T T T"
Si      -1.35312885       1.35262386       1.35721983       0.00000000
Si       1.35664749       1.35583299      -1.35649550       0.00000000
Si       1.35366642      -1.35871632       1.35887544       0.00000000
Si      -1.35808101      -1.35930276      -1.35639202       0.00000000
Si       0.01115865       2.70226665       2.69805603       0.00000000
Si      -0.00149868      -2.69154783       2.71971691       0.00000000
Si      -0.00091224       2.71363707      -2.71343939       0.00000000
Si      -2.71393029       2.71362078       0.00127620       0.00000000
Si       2.71406061       2.71417464       0.00103476       0.00000000
Si       2.71433754      -0.00193851      -2.71406025       0.00000000
