10
Lattice="16.28999089631971 0.0 0.0 0.0 16.28999089631971 0.0 0.0 0.0 34.49183129400761" Properties=species:S:1:pos:R:3:initial_magmoms:R:1 pbc="T T T"
Si      -1.33499451       1.43822781      -1.45886731       0.00000000
Si       0.45297212       1.30292307       2.15008400       0.00000000
Si       1.45228869      -1.58275269      -1.42554818       0.00000000
Si      -2.48430288      -0.90090216       0.20094952       0.00000000
Si       0.48709478      -2.62615977       0.98970916       0.00000000
Si      -1.70901291      -2.29012965       1.98817925       0.00000000
Si      -3.06292368       1.13792166       1.36718797       0.00000000
Si      -2.08852104       2.94264189       0.27486556       0.00000000
Si      -1.69039344       0.88778871       3.29790380       0.00000000
Si       2.65998856       0.08837325      -2.76700524       0.00000000
