10
Lattice="16.28999089631971 0.0 0.0 0.0 16.28999089631971 0.0 0.0 0.0 34.49183129400761" Properties=species:S:1:pos:R:3:initial_magmoms:R:1 pbc="T T T"
Si      -0.74231901       2.21482098      -0.04049343       0.00000000
Si       1.94944941      -0.25319547      -1.27957867       0.00000000
Si       1.00001640       0.08588088       2.14249579       0.00000000
Si      -2.00324646      -1.13424012      -0.55514633       0.00000000
Si      -2.00932263       2.16604872       1.97300284       0.00000000
Si       0.26028162      -1.98519714       2.99641053       0.00000000
Si      -2.70414000       0.11802105      -2.40353012       0.00000000
Si       1.32138357       3.36945618      -0.10733864       0.00000000
Si       2.59875089       2.01386754      -1.56217040       0.00000000
Si      -2.28450960       2.42088948      -1.82917182       0.00000000
