10
Lattice="16.28999089631971 0.0 0.0 0.0 16.28999089631971 0.0 0.0 0.0 34.49183129400761" Properties=species:S:1:pos:R:3:initial_magmoms:R:1 pbc="T T T"
Si       2.35444257      -0.06954201      -0.10578651       0.00000000
Si      -0.50191119       2.28918483       0.41210863       0.00000000
Si      -0.74212353      -1.51786962       1.71310674       0.00000000
Si      -1.42126992       0.31843692      -1.93551019       0.00000000
Si      -2.45526138       2.13280083      -0.91444794       0.00000000
Si       0.09091449       0.78141501      -3.65734338       0.00000000
Si       3.02163210      -0.32189040       2.21692920       0.00000000
Si       3.09417735       2.00153601      -0.95970125       0.00000000
Si       3.01565367      -1.94489568      -1.43962086       0.00000000
Si      -2.69754255      -0.73852344       2.79404685       0.00000000
