10
Lattice="16.28999089631971 0.0 0.0 0.0 16.28999089631971 0.0 0.0 0.0 34.49183129400761" Properties=species:S:1:pos:R:3:initial_magmoms:R:1 pbc="T T T"
Si      -1.33579629      -1.36083402       1.37784595       0.00000000
Si       1.38257370       1.35236322       1.37494864       0.00000000
Si       1.35853780      -1.33791399      -1.43562670       0.00000000
Si      -1.41737661       1.25664318      -1.55017414       0.00000000
Si       0.57750235       2.04439500      -2.52752521       0.00000000
Si      -2.66828571       2.69509467       0.01569379       0.00000000
Si       2.40431345       0.45178686      -2.92813189       0.00000000
Si      -2.67998193      -2.73209364      -0.00697770       0.00000000
Si      -2.69407278      -0.00255753       2.73865294       0.00000000
Si       2.73721589      -2.70119151       0.00868505       0.00000000
