10
Lattice="16.28999089631971 0.0 0.0 0.0 16.28999089631971 0.0 0.0 0.0 34.49183129400761" Properties=species:S:1:pos:R:3:initial_magmoms:R:1 pbc="T T T"
Si      -0.72303165      -1.88097372      -1.23335959       0.00000000
Si      -0.55369710      -0.34256241       2.32092213       0.00000000
Si       1.96058295       0.77043555      -1.20545569       0.00000000
Si      -1.79396883       1.77942186      -0.07446791       0.00000000
Si      -2.02790952      -0.56597976      -2.69722822       0.00000000
Si       0.68061249       2.16138978      -2.66884143       0.00000000
Si      -1.39828473      -2.60693757       2.08379066       0.00000000
Si      -2.60490132      -2.62254339       0.03438838       0.00000000
Si      -2.55485844       1.58798178       2.23648608       0.00000000
Si      -3.44178378       0.73164906      -1.42223697       0.00000000
