10
Lattice="16.28999089631971 0.0 0.0 0.0 16.28999089631971 0.0 0.0 0.0 34.49183129400761" Properties=species:S:1:pos:R:3:initial_magmoms:R:1 pbc="T T T"
Si      -0.16482222      -1.81573227      -1.43893102       0.00000000
Si       0.31465764       1.73697012      -1.62218622       0.00000000
Si      -2.17147329       0.41156685       0.96891057       0.00000000
Si       2.21378724      -0.43684893       0.96777234       0.00000000
Si      -2.12758803       2.75524403       0.81459403       0.00000000
Si       1.96904628      -1.81216476      -2.50869577       0.00000000
Si       2.41117154       2.62144937      -1.02702934       0.00000000
Si      -1.64229264       3.02107891      -1.49825701       0.00000000
Si       3.28589567       1.65222954       0.91562067       0.00000000
Si       0.03785796      -3.89972826      -0.36244037       0.00000000
