10
Lattice="16.28999089631971 0.0 0.0 0.0 16.28999089631971 0.0 0.0 0.0 34.49183129400761" Properties=species:S:1:pos:R:3:initial_magmoms:R:1 pbc="T T T"
Si       2.26341405       0.34311627      -0.56773586       0.00000000
Si      -0.95158754       0.47930067      -2.11762717       0.00000000
Si      -0.22524902      -2.18149164       0.94293821       0.00000000
Si      -0.54357191       1.85948721       1.61953035       0.00000000
Si       1.12184343      -1.02374505       2.78411319       0.00000000
Si       3.07659456      -0.30063195       1.54185470       0.00000000
Si      -2.53091933      -2.69317683       1.00961096       0.00000000
Si       2.94094773      -1.12892958      -2.27728994       0.00000000
Si      -3.21265583      -0.28225683      -2.24452268       0.00000000
Si       2.82020625       2.56305231      -1.23615343       0.00000000
