10
Lattice="16.28999089631971 0.0 0.0 0.0 16.28999089631971 0.0 0.0 0.0 34.49183129400761" Properties=species:S:1:pos:R:3:initial_magmoms:R:1 pbc="T T T"
Si       1.35676126       1.35671980       1.35690940       0.00000000
Si      -1.35776755       1.35571959      -1.35922036       0.00000000
Si      -1.35869608      -1.35882713       1.35690940       0.00000000
Si       1.36081421      -1.36079822      -1.36277302       0.00000000
Si      -2.69004520      -0.01806677      -2.72202786       0.00000000
Si       2.71342015      -0.00059859       2.71471559       0.00000000
Si      -0.00100589       2.71381037       2.71461212       0.00000000
Si      -0.00106267      -2.71560494       2.71454313       0.00000000
Si       2.71574962       2.71451084       0.00034492       0.00000000
Si      -2.71601146      -0.00092485       2.71437067       0.00000000
