10
Lattice="16.28999089631971 0.0 0.0 0.0 16.28999089631971 0.0 0.0 0.0 34.49183129400761" Properties=species:S:1:pos:R:3:initial_magmoms:R:1 pbc="T T T"
Si      -0.33560658       2.04198408      -1.10411863       0.00000000
Si      -2.13738972      -0.56099502       0.84018699       0.00000000
Si       0.69138018      -1.58777001      -1.62370387       0.00000000
Si       1.86667110       0.32926977       1.47221566       0.00000000
Si       1.92121002       2.42180172      -2.00135514       0.00000000
Si       1.43335710      -1.25876088       3.15621128       0.00000000
Si      -2.14583120       0.33951618       2.99078836       0.00000000
Si       3.75166845      -0.19386729       0.13310405       0.00000000
Si      -1.57413365       3.40073298       0.47095173       0.00000000
Si      -3.75006293      -0.06214635      -0.85926098       0.00000000
