10
Lattice="16.28999089631971 0.0 0.0 0.0 16.28999089631971 0.0 0.0 0.0 34.49183129400761" Properties=species:S:1:pos:R:3:initial_magmoms:R:1 pbc="T T T"
Si       0.00844148      -0.90051120      -2.15060137       0.00000000
Si      -1.94944941       0.25319547       1.27957867       0.00000000
Si       0.64930148       2.26706301      -0.28259173       0.00000000
Si       1.55235392      -1.28790369       1.34866585       0.00000000
Si      -0.61273369      -3.08003175      -1.48080413       0.00000000
Si       1.38492530      -0.00790065       3.27369052       0.00000000
Si      -0.94943300       0.33907635       3.42207446       0.00000000
Si       2.14583120      -0.33951618      -2.99078836       0.00000000
Si      -2.69176842       2.46801645       1.23908524       0.00000000
Si      -0.62806584       3.62265165       1.17224003       0.00000000
