10
Lattice="16.28999089631971 0.0 0.0 0.0 16.28999089631971 0.0 0.0 0.0 34.49183129400761" Properties=species:S:1:pos:R:3:initial_magmoms:R:1 pbc="T T T"
Si       0.76787802      -2.23645410      -0.06843183       0.00000000
Si      -1.29300246       0.47791602       1.97717635       0.00000000
Si      -1.48991598       0.21778101      -1.90508838       0.00000000
Si       2.35579464       0.91380384       0.22519729       0.00000000
Si       2.65732254       0.82543059      -2.22965670       0.00000000
Si       1.66690683       2.83949361       1.60925178       0.00000000
Si       0.31135077       1.47540159       3.34363107       0.00000000
Si      -0.91277757       2.23182774      -2.93339392       0.00000000
Si       1.52860473      -0.90163521      -3.42521322       0.00000000
Si      -0.78086115      -1.10869740      -3.66493158       0.00000000
