10
Lattice="16.28999089631971 0.0 0.0 0.0 16.28999089631971 0.0 0.0 0.0 34.49183129400761" Properties=species:S:1:pos:R:3:initial_magmoms:R:1 pbc="T T T"
Si       0.70905483      -1.32647841      -1.75984320       0.00000000
Si       0.57713841       2.01404673      -1.02830554       0.00000000
Si      -2.34122228       0.29121633      -0.00286282       0.00000000
Si       1.48991598      -0.21778101       1.90508838       0.00000000
Si      -2.65472333      -2.03004351       1.09584058       0.00000000
Si       3.01852071      -1.11941622      -1.52012484       0.00000000
Si      -2.33644896       2.33280945       1.47687206       0.00000000
Si       0.15226263      -3.54641445      -1.09142563       0.00000000
Si       2.25779400      -2.45423511       1.83665655       0.00000000
Si      -0.86095419       3.73083354      -0.10916671       0.00000000
