10
Lattice="16.28999089631971 0.0 0.0 0.0 16.28999089631971 0.0 0.0 0.0 34.49183129400761" Properties=species:S:1:pos:R:3:initial_magmoms:R:1 pbc="T T T"
Si      -1.35470735       1.35860229      -1.36266954       0.00000000
Si       1.35979146      -1.35992178      -1.36111741       0.00000000
Si      -1.36234899      -1.35718506       1.36794679       0.00000000
Si       1.38041460       1.36028016       1.37091309       0.00000000
Si       0.14610501      -2.58090615       2.69960816       0.00000000
Si      -2.71188494       2.71386513      -0.00696735       0.00000000
Si      -2.71515923      -2.71406061      -0.00351817       0.00000000
Si       2.71502172       2.71510850      -0.00234545       0.00000000
Si      -2.71192529      -0.00104256      -2.71888910       0.00000000
Si       0.00255753       2.71396379      -2.71871665       0.00000000
