10
Lattice="10.86 0.0 0.0 0.0 10.86 0.0 0.0 0.0 10.86" Properties=species:S:1:pos:R:3:initial_magmoms:R:1 pbc="T T T"
Si       1.48058724       1.09864104       1.36445040       0.00000000
Si      -1.32673362       1.46996616      -1.35886836       0.00000000
Si      -1.23441276      -1.61635896       1.36445040       0.00000000
Si       1.48058724      -1.61635896      -1.35054960       0.00000000
Si       0.12308724       2.45614104       2.72195040       0.00000000
Si       2.97498840       2.28794136       0.18873594       0.00000000
Si      -2.59191276      -0.25885896       2.72195040       0.00000000
Si      -2.72773878      -0.15984834      -2.60183880       0.00000000
Si      -2.89546062       2.53955670       0.13172094       0.00000000
Si       2.59373724       0.10918644      -2.85632118       0.00000000
