10
Lattice="16.28999089631971 0.0 0.0 0.0 16.28999089631971 0.0 0.0 0.0 34.63643526849801" Properties=species:S:1:pos:R:3:initial_magmoms:R:1 pbc="T T T"
Si      -1.35707103      -1.35560493      -1.35702166       0.00000000
Si       1.35772263      -1.35661491       1.35788757       0.00000000
Si      -1.35723393       1.35799956       1.35795684       0.00000000
Si       1.35796698       1.35614250      -1.36083167       0.00000000
Si       0.00092853      -2.71367291       2.71511704       0.00000000
Si      -2.71456071      -2.71461610      -0.00003464       0.00000000
Si       2.72077209      -0.00693954      -2.70846684       0.00000000
Si       0.00073305       2.71474479       2.71487459       0.00000000
Si      -2.71582156       0.00089595       2.71397404       0.00000000
Si       2.71580364      -2.71415509       0.00055418       0.00000000
