10
Lattice="16.28999089631971 0.0 0.0 0.0 16.28999089631971 0.0 0.0 0.0 34.63643526849801" Properties=species:S:1:pos:R:3:initial_magmoms:R:1 pbc="T T T"
Si       1.35545832       1.35531171      -1.35761048       0.00000000
Si      -1.35995436       1.35503478       1.35913448       0.00000000
Si       1.35526284      -1.36024758       1.35941157       0.00000000
Si      -1.35892809      -1.35949824      -1.35719484       0.00000000
Si       2.71399545       2.71160082      -0.00045027       0.00000000
Si      -0.00161271       2.71277370      -2.71490922       0.00000000
Si       2.71305063      -0.00329058      -2.71466677       0.00000000
Si      -2.71591767       2.71186146      -0.00020782       0.00000000
Si      -0.00084708      -2.71703842      -2.71452822       0.00000000
Si      -2.71665072      -0.00288333      -2.71508241       0.00000000
