10
Lattice="16.28999089631971 0.0 0.0 0.0 16.28999089631971 0.0 0.0 0.0 34.63643526849801" Properties=species:S:1:pos:R:3:initial_magmoms:R:1 pbc="T T T"
Si       1.32499602       1.42170975       1.35920375       0.00000000
Si      -1.25332002       1.44182790      -1.48098553       0.00000000
Si       1.46261394      -1.27220013      -1.47277669       0.00000000
Si      -1.60117668      -1.15584066       1.51679962       0.00000000
Si      -0.28522161       1.20449889       3.25970602       0.00000000
Si      -2.70966231      -2.60736111      -0.01728359       0.00000000
Si      -2.62091439       2.84434803      -0.08714532       0.00000000
Si      -2.60804529       0.08679312      -2.85955106       0.00000000
Si       0.10717191      -2.62848924      -2.85927397       0.00000000
Si       2.94593247      -2.56541436      -0.05254350       0.00000000
