10
Lattice="16.28999089631971 0.0 0.0 0.0 16.28999089631971 0.0 0.0 0.0 34.63643526849801" Properties=species:S:1:pos:R:3:initial_magmoms:R:1 pbc="T T T"
Si       1.34288244       1.35622395       1.36512659       0.00000000
Si      -1.35804843       1.35534429      -1.35695238       0.00000000
Si       1.35531171      -1.36001952      -1.35643284       0.00000000
Si      -1.36158336      -1.35816246       1.36290985       0.00000000
Si       2.71096551       2.71565703       0.00266701       0.00000000
Si      -0.00086337       2.71277370      -2.71407795       0.00000000
Si       2.71404432      -0.00193851      -2.71390477       0.00000000
Si      -2.71567332      -0.00219915      -2.71414722       0.00000000
Si       2.71345788      -2.71720458       0.00540329       0.00000000
Si      -2.71875213       2.71192662       0.00287483       0.00000000
