10
Lattice="16.28999089631971 0.0 0.0 0.0 16.28999089631971 0.0 0.0 0.0 34.63643526849801" Properties=species:S:1:pos:R:3:initial_magmoms:R:1 pbc="T T T"
Si      -1.34710155       1.31644377      -1.41202435       0.00000000
Si      -1.40620167      -1.04808231       1.62382627       0.00000000
Si       1.25674092       1.44604701       1.44617589       0.00000000
Si       1.36759437      -1.40252013      -1.39384021       0.00000000
Si      -2.66993100      -2.62298322       0.11748685       0.00000000
Si      -2.66690106       2.68824096       0.00356755       0.00000000
Si      -2.46220092       0.97060707       2.77219792       0.00000000
Si       0.01448181       2.67460623      -2.77493420       0.00000000
Si       2.65916331       2.80344384       0.10588364       0.00000000
Si      -0.38915181       2.47220298       2.94704274       0.00000000
