10
Lattice="16.28999089631971 0.0 0.0 0.0 16.28999089631971 0.0 0.0 0.0 34.63643526849801" Properties=species:S:1:pos:R:3:initial_magmoms:R:1 pbc="T T T"
Si      -2.01611556       0.29212857      -1.15720395       0.00000000
Si       1.45165077       1.43728299      -1.16517033       0.00000000
Si       0.90029943      -2.07264186      -0.68607889       0.00000000
Si      -0.13191642       0.60152454       2.33740650       0.00000000
Si      -2.58567912       2.29926834       0.03041081       0.00000000
Si       0.56037600      -1.79574444      -3.00183761       0.00000000
Si      -0.22229334      -3.48478938       0.79106199       0.00000000
Si       1.16251956       0.53724420      -3.35492163       0.00000000
Si       1.75366737      -0.59896701       3.08517292       0.00000000
Si       3.31752366       1.44389673       0.31858611       0.00000000
