10
Lattice="16.28999089631971 0.0 0.0 0.0 16.28999089631971 0.0 0.0 0.0 34.63643526849801" Properties=species:S:1:pos:R:3:initial_magmoms:R:1 pbc="T T T"
Si      -1.45165077      -1.43728299       1.16517033       0.00000000
Si      -0.63586386       2.26862685      -0.15208867       0.00000000
Si       1.86587289       0.00661374       1.48375644       0.00000000
Si      -0.28913121      -0.90003879      -2.18975130       0.00000000
Si       1.01504619       1.80193464       2.90696836       0.00000000
Si      -0.55135134      -3.50992485       0.47909144       0.00000000
Si      -2.28897306       2.40305193       1.50890251       0.00000000
Si      -3.46776633      -1.14515442       0.00796638       0.00000000
Si       0.97645518       3.42746487       1.11179556       0.00000000
Si      -1.98391023       0.62302734      -3.13324832       0.00000000
