10
Lattice="16.28999089631971 0.0 0.0 0.0 16.28999089631971 0.0 0.0 0.0 34.63643526849801" Properties=species:S:1:pos:R:3:initial_magmoms:R:1 pbc="T T T"
Si       1.28034513      -0.01725111       1.98556940       0.00000000
Si      -0.59038218       2.24055918      -0.47012060       0.00000000
Si      -1.86963588      -1.37981187       0.53527177       0.00000000
Si       1.68904494      -0.93170655      -1.45247972       0.00000000
Si      -0.80298297      -0.87622281       2.81324212       0.00000000
Si       2.38938462      -2.74637997      -0.11630921       0.00000000
Si      -3.55297932      -0.38175615      -0.88070113       0.00000000
Si       2.29390893       2.16166671       1.95217986       0.00000000
Si       1.18609119       3.58766073       0.35000137       0.00000000
Si      -1.43418789      -3.62263536      -0.09383016       0.00000000
