10
Lattice="16.28999089631971 0.0 0.0 0.0 16.28999089631971 0.0 0.0 0.0 34.63643526849801" Properties=species:S:1:pos:R:3:initial_magmoms:R:1 pbc="T T T"
Si       1.35804843      -1.35534429       1.35695238       0.00000000
Si       1.35718506       1.35742941      -1.35712557       0.00000000
Si      -1.35762489      -1.35754344      -1.35719484       0.00000000
Si      -1.36070370       1.35658233       1.35982721       0.00000000
Si       2.70093087       0.00087966       2.72207897       0.00000000
Si      -2.71505104      -2.71339272       0.00010391       0.00000000
Si       2.71336014      -2.71536381       0.00051955       0.00000000
Si      -0.00138465      -2.71480995      -2.71404331       0.00000000
Si       2.71513575       2.71378368      -0.00031173       0.00000000
Si      -2.71476108       2.71432125       0.00069273       0.00000000
