10
Lattice="16.28999089631971 0.0 0.0 0.0 16.28999089631971 0.0 0.0 0.0 34.63643526849801" Properties=species:S:1:pos:R:3:initial_magmoms:R:1 pbc="T T T"
Si      -1.46467041       1.80380962      -0.03810010       0.00000000
Si       0.96358934      -0.24846160      -2.15476848       0.00000000
Si      -1.43007045      -1.84616755       0.59207556       0.00000000
Si       1.67121065      -0.46439206       1.75291633       0.00000000
Si       2.09975168       1.95247216       1.00272536       0.00000000
Si       0.05182501      -3.29589610      -0.45553865       0.00000000
Si       1.99378523      -2.64336757       0.70516358       0.00000000
Si      -0.09074019      -2.27783626      -2.61557187       0.00000000
Si      -2.07049551       1.97016310       2.19487749       0.00000000
Si       1.66081763       3.45162457      -0.78971117       0.00000000
