10
Lattice="16.28999089631971 0.0 0.0 0.0 16.28999089631971 0.0 0.0 0.0 34.63643526849801" Properties=species:S:1:pos:R:3:initial_magmoms:R:1 pbc="T T T"
Si       1.09094130       0.74502871       2.00368426       0.00000000
Si       1.01248866      -2.17950426      -0.15617577       0.00000000
Si       1.30577382       1.03366959      -1.82724616       0.00000000
Si      -2.98594071      -0.99882135       0.76293719       0.00000000
Si       0.82414368       3.11889059       1.56161919       0.00000000
Si      -0.59983038      -3.33834228      -1.42006000       0.00000000
Si      -1.34574948       3.39313274       0.53499468       0.00000000
Si       3.43451844       0.04570974      -1.55864046       0.00000000
Si      -2.66080860       2.42646785      -1.30018323       0.00000000
Si      -3.68716005       0.25202259      -1.08204284       0.00000000
