10
Lattice="16.28999089631971 0.0 0.0 0.0 16.28999089631971 0.0 0.0 0.0 34.63643526849801" Properties=species:S:1:pos:R:3:initial_magmoms:R:1 pbc="T T T"
Si      -1.35526284       1.36024758      -1.35941157       0.00000000
Si       1.35843939      -1.35918059      -1.35993112       0.00000000
Si      -1.36288656      -1.33709297       1.38161354       0.00000000
Si       1.35544203       1.35628911       1.38649728       0.00000000
Si       0.19181475      -2.54723309       2.71570586       0.00000000
Si      -2.71521720       2.71528236      -0.00027709       0.00000000
Si      -2.71419093       0.00074934      -2.71660641       0.00000000
Si      -2.71511946      -2.71594329       0.00367146       0.00000000
Si       0.00097740      -2.71483605      -2.71733377       0.00000000
Si       2.71671588      -2.71569680      -0.00412174       0.00000000
