10
Lattice="16.28999089631971 0.0 0.0 0.0 16.28999089631971 0.0 0.0 0.0 34.63643526849801" Properties=species:S:1:pos:R:3:initial_magmoms:R:1 pbc="T T T"
Si      -2.23765956       0.30687102       0.81956779       0.00000000
Si       1.59889608      -1.73960000       0.89109207       0.00000000
Si      -0.92680326      -0.73587306      -2.23495187       0.00000000
Si       1.31367447       1.91920635       1.09440806       0.00000000
Si       1.64778237       1.90700514      -2.20533770       0.00000000
Si       0.54356472      -2.61761471      -2.39209747       0.00000000
Si      -0.13348026       1.06215687      -3.54947460       0.00000000
Si       3.63449448      -0.82914471      -0.03086108       0.00000000
Si       0.80783739      -3.67758872      -0.26347951       0.00000000
Si       0.78151275       1.63662372       3.39274464       0.00000000
