10
Lattice="16.28999089631971 0.0 0.0 0.0 16.28999089631971 0.0 0.0 0.0 34.63643526849801" Properties=species:S:1:pos:R:3:initial_magmoms:R:1 pbc="T T T"
Si      -1.20865284       0.81862137      -1.86375299       0.00000000
Si       0.23188815       1.03948119       2.12518895       0.00000000
Si      -0.59911362      -2.32803974       0.23466198       0.00000000
Si       2.25753336       0.35127756      -0.78638607       0.00000000
Si      -0.76163895      -0.97847514      -3.35956292       0.00000000
Si      -1.69922619      -2.62938845      -1.87497520       0.00000000
Si       1.52963100      -3.31599959       0.50326769       0.00000000
Si       2.54229885       1.16985006       2.53299856       0.00000000
Si      -1.08074376      -0.24281874       3.62352734       0.00000000
Si       3.09259134       2.15715438       0.48369809       0.00000000
