10
Lattice="16.28999089631971 0.0 0.0 0.0 16.28999089631971 0.0 0.0 0.0 34.63643526849801" Properties=species:S:1:pos:R:3:initial_magmoms:R:1 pbc="T T T"
Si       0.14665887       2.26690011      -0.46461340       0.00000000
Si       1.20865284      -0.81862137       1.86375299       0.00000000
Si      -2.31327774      -0.12022020      -0.52997239       0.00000000
Si       0.44701389      -1.79709651      -1.49580993       0.00000000
Si      -1.58226399      -1.26052020      -2.63656156       0.00000000
Si      -2.56797189      -2.22275910       0.48345563       0.00000000
Si      -0.49057335      -3.44800982      -0.01122221       0.00000000
Si       3.46618620      -0.46734381       1.07736692       0.00000000
Si      -1.55147589       3.26966364       0.82102252       0.00000000
Si      -0.67996089       2.72810259      -2.55260280       0.00000000
