10
Lattice="16.28999089631971 0.0 0.0 0.0 16.28999089631971 0.0 0.0 0.0 34.63643526849801" Properties=species:S:1:pos:R:3:initial_magmoms:R:1 pbc="T T T"
Si       2.23508574       0.46919273       0.03318172       0.00000000
Si      -0.94222989       2.04240436       0.67856278       0.00000000
Si      -0.76426164      -0.78465087      -2.08002301       0.00000000
Si      -0.28781172      -1.67245587       1.73906175       0.00000000
Si      -2.37053709      -2.36777823       0.73900340       0.00000000
Si       2.21086251       1.40215849       2.27862844       0.00000000
Si      -0.12061116      -3.10040469      -1.82873553       0.00000000
Si       0.09757710       2.32016515       2.76198016       0.00000000
Si      -3.13479873       1.30892756       1.24199399       0.00000000
Si       3.22183620      -1.65983112      -0.43891315       0.00000000
