10
Lattice="16.28999089631971 0.0 0.0 0.0 16.28999089631971 0.0 0.0 0.0 34.63643526849801" Properties=species:S:1:pos:R:3:initial_magmoms:R:1 pbc="T T T"
Si      -1.32499602      -1.42170975      -1.35920375       0.00000000
Si       1.45836225       1.34589609      -1.39643794       0.00000000
Si      -1.61021763      -0.21721086       1.90050227       0.00000000
Si      -0.95503383       1.90527840       1.31746682       0.00000000
Si       0.89285490       3.31931556       1.58593398       0.00000000
Si      -2.57831604       0.02011815      -2.84018928       0.00000000
Si      -2.92617270      -2.57755041       0.15759587       0.00000000
Si       0.13761792      -2.69390988      -2.83198044       0.00000000
Si      -2.68916949       2.86868529      -0.00017318       0.00000000
Si       0.13201416       2.75358015      -2.82907098       0.00000000
