10
Lattice="16.28999089631971 0.0 0.0 0.0 16.28999089631971 0.0 0.0 0.0 34.63643526849801" Properties=species:S:1:pos:R:3:initial_magmoms:R:1 pbc="T T T"
Si       1.79897312       1.17762039      -0.76401092       0.00000000
Si      -1.74269184       0.14094108      -1.57550841       0.00000000
Si      -1.35727044       1.15466778       1.56736884       0.00000000
Si       1.19904500      -2.07684468       0.25495894       0.00000000
Si      -2.67394227      -1.69823739      -0.40174824       0.00000000
Si      -2.69816550      -0.76527162       1.84369848       0.00000000
Si       3.34368866       0.65433672       0.97113691       0.00000000
Si       1.99901432      -2.29361408      -2.01746957       0.00000000
Si       2.42755535       0.12325014      -2.76766054       0.00000000
Si      -2.28171165       2.45855196      -1.59119873       0.00000000
