10
Lattice="16.28999089631971 0.0 0.0 0.0 16.28999089631971 0.0 0.0 0.0 34.63643526849801" Properties=species:S:1:pos:R:3:initial_magmoms:R:1 pbc="T T T"
Si       1.42904025       1.78220745       0.50233250       0.00000000
Si       1.53016857      -1.78439031       0.22659169       0.00000000
Si      -0.59670270       0.29180277      -2.29418021       0.00000000
Si      -1.71867645      -0.50801994       1.59386573       0.00000000
Si       2.90123271       1.71535329      -1.30666025       0.00000000
Si      -1.35210258       1.28695887       3.16708814       0.00000000
Si      -1.33053462      -2.90206350       1.86808254       0.00000000
Si       0.97987608      -2.77169463       2.27589216       0.00000000
Si      -2.62441674      -0.85602321      -2.58547279       0.00000000
Si       0.69511059      -3.59026713      -1.04349247       0.00000000
