10
Lattice="16.28999089631971 0.0 0.0 0.0 16.28999089631971 0.0 0.0 0.0 34.63643526849801" Properties=species:S:1:pos:R:3:initial_magmoms:R:1 pbc="T T T"
Si       1.91254374      -1.15857738      -0.70492112       0.00000000
Si      -0.70033968       1.81467342      -1.33617051       0.00000000
Si      -1.61404578      -1.72294443       0.36950170       0.00000000
Si       0.62744193       1.04133825       2.19685177       0.00000000
Si       1.06792353      -1.47642786       2.57934214       0.00000000
Si      -1.10903949       2.72912886       2.10187861       0.00000000
Si      -1.22124501      -2.17354212       2.63514147       0.00000000
Si      -2.38938462       2.74637997       0.11630921       0.00000000
Si       1.18066662       3.27772719      -1.50426122       0.00000000
Si       2.82633129      -2.26178505       1.19028176       0.00000000
