10
Lattice="16.28999089631971 0.0 0.0 0.0 16.28999089631971 0.0 0.0 0.0 34.63643526849801" Properties=species:S:1:pos:R:3:initial_magmoms:R:1 pbc="T T T"
Si      -1.17748844      -2.00520845       0.47018987       0.00000000
Si       1.80708228       0.50435632       1.51506780       0.00000000
Si      -1.19904500       2.07684468      -0.25495894       0.00000000
Si       0.79996932      -0.21676940      -2.27242852       0.00000000
Si       0.59992812       3.25446507      -1.01896986       0.00000000
Si       2.14464366       2.73118140       0.71617797       0.00000000
Si      -2.88623681      -1.75041656      -1.12880206       0.00000000
Si       1.22851035       2.20009482      -3.02261949       0.00000000
Si      -3.87298727       0.37860729      -0.65670718       0.00000000
Si       3.50248032      -1.19052926       1.46411757       0.00000000
