10
Lattice="16.28999089631971 0.0 0.0 0.0 16.28999089631971 0.0 0.0 0.0 34.63643526849801" Properties=species:S:1:pos:R:3:initial_magmoms:R:1 pbc="T T T"
Si       0.28742076      -0.40563729       2.27325979       0.00000000
Si      -1.84788873      -1.41403716      -0.26846716       0.00000000
Si       2.35972053       0.37191699       0.19178205       0.00000000
Si       2.32458300      -0.91295676      -1.80300065       0.00000000
Si      -0.70613892       2.94282108       0.66484675       0.00000000
Si      -1.23017193       2.77474086      -1.67581558       0.00000000
Si       0.56550735      -1.97341947      -2.98237193       0.00000000
Si      -2.17960200       0.90676656      -2.92639941       0.00000000
Si      -0.89285490      -3.31931556      -1.58593398       0.00000000
Si       0.35126127      -2.84990292       2.69385026       0.00000000
