10
Lattice="16.28999089631971 0.0 0.0 0.0 16.28999089631971 0.0 0.0 0.0 34.63643526849801" Properties=species:S:1:pos:R:3:initial_magmoms:R:1 pbc="T T T"
Si      -0.09482409       1.33938009      -1.92547515       0.00000000
Si       1.01128320      -2.10812148      -0.30843763       0.00000000
Si      -1.98316089      -0.50394744       1.20981672       0.00000000
Si       0.79037451       1.87791120       1.51839290       0.00000000
Si      -0.76084074       2.87671626      -0.23137152       0.00000000
Si       2.35895490       0.21680361       2.28946965       0.00000000
Si       2.09570850      -2.07811530       1.79170916       0.00000000
Si       2.26330002       1.77608241      -1.96426798       0.00000000
Si      -1.07830026      -1.15426053      -3.52554081       0.00000000
Si      -3.84903378      -0.51056118      -0.27393972       0.00000000
