10
Lattice="16.28999089631971 0.0 0.0 0.0 16.28999089631971 0.0 0.0 0.0 34.63643526849801" Properties=species:S:1:pos:R:3:initial_magmoms:R:1 pbc="T T T"
Si      -2.26668834      -0.30002922       0.50846315       0.00000000
Si       1.12132215       0.27997623       2.08196265       0.00000000
Si      -0.03859101       1.62553023      -1.79517281       0.00000000
Si       0.85082670      -1.79532090      -1.42321192       0.00000000
Si       2.87041203       1.36436895       1.00944483       0.00000000
Si      -1.65091005       0.46669221      -3.05905704       0.00000000
Si      -1.01504619      -1.80193464      -2.90696836       0.00000000
Si      -3.30401925       0.60111729      -1.39806585       0.00000000
Si      -2.59861338      -2.63769309       0.59560847       0.00000000
Si       3.62436210       0.58653774      -1.11463575       0.00000000
