10
Lattice="16.28999089631971 0.0 0.0 0.0 16.28999089631971 0.0 0.0 0.0 34.63643526849801" Properties=species:S:1:pos:R:3:initial_magmoms:R:1 pbc="T T T"
Si       1.96680573       1.37085237      -0.04298384       0.00000000
Si      -1.73648142       1.68779061      -0.09497316       0.00000000
Si      -0.77946021      -0.43507332       2.27997926       0.00000000
Si      -0.62744193      -1.04133825      -2.19685177       0.00000000
Si       0.44048160      -2.51776611       0.38249037       0.00000000
Si      -2.87148717      -1.29169926       1.68444006       0.00000000
Si       0.60877359      -2.38498632       2.65589879       0.00000000
Si       1.23566166       3.10394547      -1.54097587       0.00000000
Si      -1.84868694      -3.21488037       0.43828970       0.00000000
Si      -1.32778161       0.77333517      -3.53302228       0.00000000
