10
Lattice="16.28999089631971 0.0 0.0 0.0 16.28999089631971 0.0 0.0 0.0 34.63643526849801" Properties=species:S:1:pos:R:3:initial_magmoms:R:1 pbc="T T T"
Si      -1.28471085       1.34886087      -1.38864474       0.00000000
Si       0.87526170       1.79468559       1.23700634       0.00000000
Si      -1.76003676      -0.73435320       1.40149486       0.00000000
Si       1.43345484      -1.37525067      -1.34836254       0.00000000
Si       1.13953437       0.73471158       3.36562430       0.00000000
Si      -2.70946683      -2.60232750       0.15091103       0.00000000
Si      -2.44872909       2.86414920      -0.01139539       0.00000000
Si      -3.46918356       1.00797633       1.11695639       0.00000000
Si      -2.64318282      -0.01550808      -2.72723980       0.00000000
Si       2.73171897       2.68835499       0.03179627       0.00000000
