10
Lattice="16.28999089631971 0.0 0.0 0.0 16.28999089631971 0.0 0.0 0.0 34.63643526849801" Properties=species:S:1:pos:R:3:initial_magmoms:R:1 pbc="T T T"
Si      -1.32866127      -0.70418412       1.80449001       0.00000000
Si       0.50083605      -1.81701918      -1.49522111       0.00000000
Si       2.08272537       0.69532236       1.00005835       0.00000000
Si      -1.26864891       1.82008170      -0.97647093       0.00000000
Si       2.37053709       2.36777823      -0.73900340       0.00000000
Si       2.24992593      -0.73262646      -2.56773893       0.00000000
Si       1.60627545       1.58312736      -2.81902641       0.00000000
Si      -3.48474051       0.97425603      -0.80876122       0.00000000
Si      -0.76426164       3.67670580       0.50299059       0.00000000
Si      -3.10513464      -2.05128567       0.98436804       0.00000000
