10
Lattice="16.28999089631971 0.0 0.0 0.0 16.28999089631971 0.0 0.0 0.0 34.63643526849801" Properties=species:S:1:pos:R:3:initial_magmoms:R:1 pbc="T T T"
Si      -1.68931114      -1.05147063      -1.28931005       0.00000000
Si      -1.29235187       1.39509189       1.45366429       0.00000000
Si       0.82328194       1.88718021      -1.22724925       0.00000000
Si       1.42964461      -1.30122891       1.41971710       0.00000000
Si      -3.43375837       0.68186682      -1.18874564       0.00000000
Si      -2.71181815       2.63710665       0.08473809       0.00000000
Si      -2.74436557      -2.67662619       0.02404809       0.00000000
Si      -2.65420042       0.05665662       2.80695560       0.00000000
Si       0.05755257      -2.66528835       2.80473887       0.00000000
Si       2.73822031       2.77799886       0.00231372       0.00000000
