10
Lattice="16.28999089631971 0.0 0.0 0.0 16.28999089631971 0.0 0.0 0.0 34.63643526849801" Properties=species:S:1:pos:R:3:initial_magmoms:R:1 pbc="T T T"
Si      -1.41946628       1.24201476      -1.36892621       0.00000000
Si      -1.36184855      -1.33843527       1.35329131       0.00000000
Si       1.35079713       1.37329587       1.35110921       0.00000000
Si       1.29235187      -1.39509189      -1.45366429       0.00000000
Si       2.11563381       0.49208832      -2.68091354       0.00000000
Si      -2.14140650      -0.71322507      -2.64240993       0.00000000
Si       0.23820642       2.40316596      -2.53224037       0.00000000
Si      -0.39695927      -2.44656252      -2.74297435       0.00000000
Si      -0.00725062      -2.69671176       2.71020906       0.00000000
Si       2.72199648      -2.69632080      -0.03394719       0.00000000
