10
Lattice="16.28999089631971 0.0 0.0 0.0 16.28999089631971 0.0 0.0 0.0 34.63643526849801" Properties=species:S:1:pos:R:3:initial_magmoms:R:1 pbc="T T T"
Si       0.60582510      -0.16635348      -2.23297759       0.00000000
Si       1.74269184      -0.14094108       1.57550841       0.00000000
Si      -0.93125043      -1.83917847       1.17376017       0.00000000
Si      -0.53901981       2.31761088      -0.01569031       0.00000000
Si       0.38542140       1.01372670       3.14287726       0.00000000
Si      -1.54251639      -0.47241000      -3.11045753       0.00000000
Si       2.07049551      -1.97016310      -2.19487749       0.00000000
Si      -0.95547366      -0.90621270       3.41920689       0.00000000
Si       1.18480428       3.29522265      -1.26620487       0.00000000
Si       3.54166496       1.03667931       0.81149750       0.00000000
