10
Lattice="16.28999089631971 0.0 0.0 0.0 16.28999089631971 0.0 0.0 0.0 34.63643526849801" Properties=species:S:1:pos:R:3:initial_magmoms:R:1 pbc="T T T"
Si      -2.11328541       0.91800666       0.48335172       0.00000000
Si       1.34089506       1.91993940      -0.27632963       0.00000000
Si       0.39021066      -1.43852103       1.90358491       0.00000000
Si       0.02422323      -0.93296577      -2.24544672       0.00000000
Si      -1.85026707      -2.16734282       1.58981327       0.00000000
Si       2.69816550       0.76527162      -1.84369848       0.00000000
Si      -2.21086251      -1.40215849      -2.27862844       0.00000000
Si      -3.15309240       0.64024587      -1.60006566       0.00000000
Si       0.95547366       0.90621270      -3.41920689       0.00000000
Si      -1.88043615       3.22004430       0.98883614       0.00000000
