10
Lattice="16.28999089631971 0.0 0.0 0.0 16.28999089631971 0.0 0.0 0.0 34.63643526849801" Properties=species:S:1:pos:R:3:initial_magmoms:R:1 pbc="T T T"
Si      -1.88428059      -0.63117234       1.28481677       0.00000000
Si       0.72194022       1.95523983       1.27348372       0.00000000
Si       1.74444723      -1.73333745      -0.10056442       0.00000000
Si      -0.20618253      -1.25998263      -2.46525974       0.00000000
Si      -0.59535063      -1.99270683       2.64373650       0.00000000
Si       2.14140650       0.71322507       2.64240993       0.00000000
Si       0.68939280      -3.35849301       1.21279373       0.00000000
Si      -0.41721948       0.82877004      -3.55894043       0.00000000
Si       3.43375837      -0.68186682       1.18874564       0.00000000
Si       2.37961292       3.11639103       0.11016956       0.00000000
