10
Lattice="16.28999089631971 0.0 0.0 0.0 16.28999089631971 0.0 0.0 0.0 34.63643526849801" Properties=species:S:1:pos:R:3:initial_magmoms:R:1 pbc="T T T"
Si       1.35703845       1.35997065       1.35217255       0.00000000
Si      -1.35716877       1.35549090      -1.35882275       0.00000000
Si       1.35739683      -1.35834165      -1.35993112       0.00000000
Si      -1.37986074      -1.36319607       1.36592322       0.00000000
Si       2.71339304       2.71329498       0.00079664       0.00000000
Si      -2.71551042       2.71194291       0.00287483       0.00000000
Si      -2.71384884      -2.71371852      -0.00280555       0.00000000
Si       0.00001629       2.71337643      -2.71705668       0.00000000
Si       2.71479607      -0.00110772      -2.71677959       0.00000000
Si      -2.71518462      -0.00161271      -2.71691814       0.00000000
