10
Lattice="16.28999089631971 0.0 0.0 0.0 16.28999089631971 0.0 0.0 0.0 34.63643526849801" Properties=species:S:1:pos:R:3:initial_magmoms:R:1 pbc="T T T"
Si      -1.33732755      -1.35641943       1.37430525       0.00000000
Si       1.35614806      -1.35330804      -1.35986185       0.00000000
Si      -1.35783666       1.36194174      -1.35951548       0.00000000
Si       1.35001813       1.36313091       1.38334536       0.00000000
Si       2.71250396      -2.70710478       0.00464128       0.00000000
Si      -0.00051188      -2.71148679      -2.71622541       0.00000000
Si      -2.71645524      -2.71270854       0.00041564       0.00000000
Si       2.71473569       0.00379557      -2.71587904       0.00000000
Si      -2.71559187       0.00381186      -2.71629468       0.00000000
Si       2.71142882       2.72129337       0.00079664       0.00000000
