10
Lattice="16.28999089631971 0.0 0.0 0.0 16.28999089631971 0.0 0.0 0.0 34.63643526849801" Properties=species:S:1:pos:R:3:initial_magmoms:R:1 pbc="T T T"
Si      -1.35643572      -1.34415306       1.37528546       0.00000000
Si       1.36335897       1.36992384       1.36704198       0.00000000
Si      -1.31644377       1.37951865      -1.42461470       0.00000000
Si       1.30684896      -1.47761703      -1.35043034       0.00000000
Si      -2.69035866      -2.69008173       0.01228555       0.00000000
Si       0.00356751      -2.70229923       2.72925911       0.00000000
Si       2.71073649       2.72764647       0.02396843       0.00000000
Si      -2.71093293       0.01268991       2.72915520       0.00000000
Si       2.72631524      -2.71963179       0.01849587       0.00000000
Si       2.71851739       0.01150074       2.72918983       0.00000000
