10
Lattice="16.28999089631971 0.0 0.0 0.0 16.28999089631971 0.0 0.0 0.0 34.63643526849801" Properties=species:S:1:pos:R:3:initial_magmoms:R:1 pbc="T T T"
Si       1.35778779       1.35617508       1.35799148       0.00000000
Si       1.35765747      -1.35780408      -1.35650211       0.00000000
Si      -1.35782037       1.35760860      -1.35674456       0.00000000
Si      -1.35718506      -1.35788553       1.35823393       0.00000000
Si       2.71462408      -0.00114030      -2.71390477       0.00000000
Si      -2.71482624       0.00004887      -2.71393940       0.00000000
Si      -0.00032580      -2.71494027      -2.71383549       0.00000000
Si       2.71477978      -2.71448415       0.00027709       0.00000000
Si       2.71500771       2.71511946       0.00055418       0.00000000
Si      -2.71520091      -2.71498914       0.00013855       0.00000000
