10
Lattice="16.28999089631971 0.0 0.0 0.0 16.28999089631971 0.0 0.0 0.0 34.63643526849801" Properties=species:S:1:pos:R:3:initial_magmoms:R:1 pbc="T T T"
Si       0.83838670      -1.43754363       1.63581048       0.00000000
Si      -2.20235913      -0.41664933       0.65823118       0.00000000
Si       0.74819874      -1.02218121      -1.96426798       0.00000000
Si       0.88437825       2.16500616       0.04897595       0.00000000
Si      -0.21740634      -3.35543049       0.67343659       0.00000000
Si       3.06730016      -0.78340239       1.48822455       0.00000000
Si      -1.00017342      -0.78486849      -3.42073090       0.00000000
Si      -2.46560553      -2.71156824       0.16047069       0.00000000
Si      -2.08766124      -0.52852905       3.02213458       0.00000000
Si       0.87650530      -3.32201970      -1.41455281       0.00000000
