10
Lattice="16.28999089631971 0.0 0.0 0.0 16.28999089631971 0.0 0.0 0.0 34.63643526849801" Properties=species:S:1:pos:R:3:initial_magmoms:R:1 pbc="T T T"
Si       1.35558896      -1.35625653       1.35986185       0.00000000
Si      -1.35778779      -1.35617508      -1.35799148       0.00000000
Si       1.35721992       1.35894438      -1.35743729       0.00000000
Si      -1.35913986       1.36076886       1.36131658       0.00000000
Si      -0.00076563      -2.70958086       2.71123776       0.00000000
Si       2.71460862      -2.71200807      -0.00034636       0.00000000
Si      -0.00013032      -2.71397916      -2.71449359       0.00000000
Si      -2.71497285      -2.71406061       0.00024246       0.00000000
Si       2.71439523       0.00128691      -2.71508241       0.00000000
Si      -2.71560816       0.00143352      -2.71473604       0.00000000
