10
Lattice="16.28999089631971 0.0 0.0 0.0 16.28999089631971 0.0 0.0 0.0 34.63643526849801" Properties=species:S:1:pos:R:3:initial_magmoms:R:1 pbc="T T T"
Si       1.35666867      -1.35625653       1.36135121       0.00000000
Si      -1.35079713      -1.37329587      -1.35110921       0.00000000
Si      -1.35859498       1.35783666       1.35958475       0.00000000
Si       1.35598449       1.37295378      -1.36800141       0.00000000
Si       2.70696306      -2.70557352       0.00460665       0.00000000
Si      -2.71264568      -2.71173114       0.00218210       0.00000000
Si       2.71295778       2.71386513       0.00034636       0.00000000
Si      -0.00100998      -2.71197549       2.71726450       0.00000000
Si       2.71284375       0.00172674       2.71698741       0.00000000
Si      -2.71375340       2.71625976      -0.00256310       0.00000000
