10
Lattice="16.28999089631971 0.0 0.0 0.0 16.28999089631971 0.0 0.0 0.0 34.63643526849801" Properties=species:S:1:pos:R:3:initial_magmoms:R:1 pbc="T T T"
Si      -1.35726651      -1.35641943      -1.35996575       0.00000000
Si       1.34710155      -1.31644377       1.41202435       0.00000000
Si       1.36158336       1.35816246      -1.36290985       0.00000000
Si      -1.31979951       1.37179719       1.41559190       0.00000000
Si       2.70446580       2.71438641       0.00221673       0.00000000
Si      -2.71151611       0.00011403      -2.71975833       0.00000000
Si      -2.71867720      -2.71458189       0.02258297       0.00000000
Si       0.00353493       2.71350675      -2.71986224       0.00000000
Si       2.71469592      -2.71896390       0.01818414       0.00000000
Si      -2.70907261       2.72689713       0.02095506       0.00000000
