10
Lattice="16.28999089631971 0.0 0.0 0.0 16.28999089631971 0.0 0.0 0.0 34.63643526849801" Properties=species:S:1:pos:R:3:initial_magmoms:R:1 pbc="T T T"
Si      -1.74632058      -0.91469979       1.27237016       0.00000000
Si       1.31979951      -1.37179719      -1.41559190       0.00000000
Si      -1.38927310       1.35509994      -1.39463685       0.00000000
Si       1.23062805       1.46551356       1.54838807       0.00000000
Si       0.20470014      -1.71763389       2.76863036       0.00000000
Si      -0.87144984       2.18266452       2.54789224       0.00000000
Si       2.27774925      -0.21603798       2.94347519       0.00000000
Si       2.66690106      -2.68824096      -0.00356755       0.00000000
Si       2.68739388       2.71272483       0.01478977       0.00000000
Si       2.68138287      -0.01363473      -2.77850175       0.00000000
