10
Lattice="16.28999089631971 0.0 0.0 0.0 16.28999089631971 0.0 0.0 0.0 34.63643526849801" Properties=species:S:1:pos:R:3:initial_magmoms:R:1 pbc="T T T"
Si       2.22891346       0.65414124      -0.14758593       0.00000000
Si      -0.66963124       0.67091994       2.13173524       0.00000000
Si      -0.83838670       1.43754363      -1.63581048       0.00000000
Si      -1.05579304      -1.91788686      -0.96237389       0.00000000
Si      -3.04074583       1.02089430      -0.97757930       0.00000000
Si      -2.92604794       0.90901458       1.38632410       0.00000000
Si       0.03811860      -1.88447607      -3.05036329       0.00000000
Si      -0.09018796       0.41536242      -3.60007846       0.00000000
Si       0.20443298      -0.99090441       3.54853941       0.00000000
Si       3.38636683      -0.89666676       1.16007877       0.00000000
