10
Lattice="16.28999089631971 0.0 0.0 0.0 16.28999089631971 0.0 0.0 0.0 34.63643526849801" Properties=species:S:1:pos:R:3:initial_magmoms:R:1 pbc="T T T"
Si      -0.50872041       2.16749853       0.91100803       0.00000000
Si       1.68334344      -0.99805572       1.41597290       0.00000000
Si      -2.40462391      -0.50976297       0.03158845       0.00000000
Si       0.77730993      -0.41552532      -2.35687219       0.00000000
Si      -1.20480840       1.53108081       3.02407422       0.00000000
Si      -1.58174271      -1.23629697       3.04270863       0.00000000
Si      -1.90383673       3.02935356      -0.70952777       0.00000000
Si       3.55297932       0.38175615       0.88070113       0.00000000
Si      -3.27868814       1.15206138      -1.38521573       0.00000000
Si       0.23894172      -2.67452478      -2.75612660       0.00000000
