10
Lattice="10.86 0.0 0.0 0.0 10.86 0.0 0.0 0.0 10.86" Properties=species:S:1:pos:R:3:initial_magmoms:R:1 pbc="T T T"
Si       1.35343836       1.31444010      -1.39509732       0.00000000
Si       1.35343836      -1.40055990       1.31990268       0.00000000
Si      -1.36156164      -1.40055990      -1.39509732       0.00000000
Si      -0.04071414       2.61392598       2.64952506       0.00000000
Si      -2.63466858       2.70141414      -0.00236748       0.00000000
Si       2.71093836       2.67194010      -0.03759732       0.00000000
Si       2.71093836      -0.04305990       2.67740268       0.00000000
Si      -0.00406164       2.67194010      -2.75259732       0.00000000
Si      -0.00406164      -2.75805990       2.67740268       0.00000000
Si       2.71093836      -0.04305990      -2.75259732       0.00000000
