10
Lattice="10.86 0.0 0.0 0.0 10.86 0.0 0.0 0.0 10.86" Properties=species:S:1:pos:R:3:initial_magmoms:R:1 pbc="T T T"
Si      -1.24046178       1.37067318       1.27970982       0.00000000
Si      -1.24046178      -1.34432682      -1.43529018       0.00000000
Si       1.47453822      -1.34432682       1.27970982       0.00000000
Si      -2.59796178       0.01317318       2.63720982       0.00000000
Si      -2.59796178      -2.70182682      -0.07779018       0.00000000
Si      -2.59796178       2.72817318      -0.07779018       0.00000000
Si       0.11703822      -2.70182682       2.63720982       0.00000000
Si       0.11703822       2.72817318       2.63720982       0.00000000
Si      -2.59796178       0.01317318      -2.79279018       0.00000000
Si       2.79538572       2.67015906      -0.10566780       0.00000000
