10
Lattice="10.86 0.0 0.0 0.0 10.86 0.0 0.0 0.0 10.86" Properties=species:S:1:pos:R:3:initial_magmoms:R:1 pbc="T T T"
Si       1.39415250      -1.29948588       1.38537762       0.00000000
Si      -1.32084750       1.41551412       1.38537762       0.00000000
Si       1.39415250       1.41551412      -1.32962238       0.00000000
Si      -2.59395444       0.08748816      -2.65189254       0.00000000
Si       0.04071414      -2.61392598      -2.64952506       0.00000000
Si       0.03665250      -2.65698588       2.74287762       0.00000000
Si       2.75165250      -2.65698588       0.02787762       0.00000000
Si      -2.67834750       0.05801412       2.74287762       0.00000000
Si       2.75165250       0.05801412      -2.68712238       0.00000000
Si      -2.67834750       2.77301412       0.02787762       0.00000000
