10
Lattice="16.28999089631971 0.0 0.0 0.0 16.28999089631971 0.0 0.0 0.0 34.45770212530097" Properties=species:S:1:pos:R:3:initial_magmoms:R:1 pbc="T T T"
Si      -1.42288656       1.26139497       1.40271526       0.00000000
Si      -1.83994314      -0.89342342      -1.19411132       0.00000000
Si       1.26394436      -1.45844394       1.38343272       0.00000000
Si       1.87563386       0.88424889      -1.34692273       0.00000000
Si      -0.47277815      -0.66323106      -3.14661506       0.00000000
Si      -2.84207136       2.45157495       0.01597805       0.00000000
Si       2.66652965       2.67267912      -0.00538230       0.00000000
Si       2.62512047      -0.09018959       2.74818591       0.00000000
Si      -0.08809306       2.62291317       2.75573215       0.00000000
Si       2.63535059      -2.77573033      -0.05883656       0.00000000
