10
Lattice="16.28999089631971 0.0 0.0 0.0 16.28999089631971 0.0 0.0 0.0 34.45770212530097" Properties=species:S:1:pos:R:3:initial_magmoms:R:1 pbc="T T T"
Si      -0.58722192       1.01085477      -1.93779888       0.00000000
Si       2.09396547      -1.02797623       0.14568725       0.00000000
Si      -0.74547927       1.80179943       1.47358445       0.00000000
Si      -1.41610599      -2.06612164       0.05151429       0.00000000
Si      -1.07038332      -1.91042182       2.42434190       0.00000000
Si       1.29275811      -2.17630720       2.15657095       0.00000000
Si      -1.66327416      -0.73198693      -2.94213808       0.00000000
Si      -1.47688398       0.30953443       3.16318437       0.00000000
Si       1.19571858       1.91030712      -2.99551309       0.00000000
Si       2.77307928      -2.48417191      -1.75820523       0.00000000
