10
Lattice="16.28999089631971 0.0 0.0 0.0 16.28999089631971 0.0 0.0 0.0 34.45770212530097" Properties=species:S:1:pos:R:3:initial_magmoms:R:1 pbc="T T T"
Si      -1.35580041       1.35568638      -1.36163132       0.00000000
Si      -1.33718094      -1.37363796       1.36597299       0.00000000
Si       1.36068741      -1.35988920      -1.36014964       0.00000000
Si       1.36519974       1.35210258       1.37944596       0.00000000
Si       2.59276527      -0.26393058       2.72646720       0.00000000
Si      -2.71029762       2.71182888      -0.00792528       0.00000000
Si      -2.71142163      -0.00247608      -2.71902434       0.00000000
Si       0.00329058       2.71241532      -2.71940337       0.00000000
Si      -2.71313208      -2.71886616      -0.00072361       0.00000000
Si       2.71898019       2.71546155      -0.00130939       0.00000000
