10
Lattice="16.28999089631971 0.0 0.0 0.0 16.28999089631971 0.0 0.0 0.0 34.45770212530097" Properties=species:S:1:pos:R:3:initial_magmoms:R:1 pbc="T T T"
Si       2.02777920       0.35401428      -0.99500116       0.00000000
Si      -0.71428392      -2.17710963      -0.37300483       0.00000000
Si      -0.08307900       0.18896400       2.32165789       0.00000000
Si      -1.73385873       1.44663345      -0.59753135       0.00000000
Si      -2.93355207      -1.67707179       0.26601361       0.00000000
Si      -2.33434071      -0.61434477       2.39749934       0.00000000
Si      -0.40863465       2.63285496       2.48774411       0.00000000
Si       1.77134202      -0.50564160      -3.17365951       0.00000000
Si       3.55628619      -1.03136877       0.12005070       0.00000000
Si       2.71542897       2.57733864      -0.61386431       0.00000000
