10
Lattice="16.28999089631971 0.0 0.0 0.0 16.28999089631971 0.0 0.0 0.0 34.45770212530097" Properties=species:S:1:pos:R:3:initial_magmoms:R:1 pbc="T T T"
Si      -1.42537500       1.23652503       1.32806950       0.00000000
Si      -1.37344248      -1.33516098      -1.35019135       0.00000000
Si       1.33884252       1.37924172      -1.34932991       0.00000000
Si       1.21920876      -1.32758613       1.60397247       0.00000000
Si       2.04331986       0.58777578       2.67181726       0.00000000
Si       0.21062970       2.28490056       2.59280570       0.00000000
Si      -2.31857199      -0.55636866       2.52382134       0.00000000
Si       2.67947694      -2.69384472       0.04644901       0.00000000
Si      -0.64716912      -2.30485581       2.97166835       0.00000000
Si       2.69557146       0.02076975      -2.70779112       0.00000000
