10
Lattice="16.28999089631971 0.0 0.0 0.0 16.28999089631971 0.0 0.0 0.0 34.45770212530097" Properties=species:S:1:pos:R:3:initial_magmoms:R:1 pbc="T T T"
Si      -0.22864644       1.65315807      -1.70389986       0.00000000
Si      -2.00647188       0.04750164       1.31401075       0.00000000
Si       0.06074541      -1.55235555      -1.85630637       0.00000000
Si       2.27949228       0.36976671       0.80903284       0.00000000
Si       2.21394132       1.74843828      -2.41400459       0.00000000
Si      -1.37613033      -3.29828517      -1.25109095       0.00000000
Si       2.26900152      -2.62646928      -1.58264314       0.00000000
Si       2.32847631       2.69231346       1.46266136       0.00000000
Si      -2.24521812      -2.03510970       2.44601581       0.00000000
Si      -1.64923218       1.36076886       3.27076137       0.00000000
