10
Lattice="16.28999089631971 0.0 0.0 0.0 16.28999089631971 0.0 0.0 0.0 34.45770212530097" Properties=species:S:1:pos:R:3:initial_magmoms:R:1 pbc="T T T"
Si       1.27327527      -1.31399605       1.52292791       0.00000000
Si       1.37072205       1.94529804       0.35088298       0.00000000
Si      -2.27335747       0.80426499       0.26535891       0.00000000
Si      -0.01931994      -1.14660001      -2.14833556       0.00000000
Si      -0.01418859      -3.26975716       1.66778817       0.00000000
Si       0.22849983       0.57532859      -3.75789018       0.00000000
Si       3.58999020       1.44526020      -0.28813547       0.00000000
Si      -2.79103901       1.21123806       2.48464292       0.00000000
Si       0.63537516       3.75897777      -0.95789020       0.00000000
Si       1.24828641      -0.48414532       3.71833271       0.00000000
