10
Lattice="16.28999089631971 0.0 0.0 0.0 16.28999089631971 0.0 0.0 0.0 34.45770212530097" Properties=species:S:1:pos:R:3:initial_magmoms:R:1 pbc="T T T"
Si       0.29185164      -0.40322637       2.48626243       0.00000000
Si       2.09329758      -1.34688978      -0.61493250       0.00000000
Si      -1.72517616      -1.57912002      -1.06443347       0.00000000
Si      -0.17803341       2.26672092      -1.51524384       0.00000000
Si       2.60736111      -0.11026701      -2.51183006       0.00000000
Si      -3.25690857      -1.79328465       0.75676048       0.00000000
Si       1.03042395       1.43580060      -3.38846895       0.00000000
Si       1.27755954       3.78739242      -0.47341463       0.00000000
Si       1.99052397      -2.14366626       2.79466631       0.00000000
Si      -0.68742171      -3.81987468      -1.14620164       0.00000000
