10
Lattice="16.28999089631971 0.0 0.0 0.0 16.28999089631971 0.0 0.0 0.0 34.45770212530097" Properties=species:S:1:pos:R:3:initial_magmoms:R:1 pbc="T T T"
Si       1.34832330       1.36373364       1.39374936       0.00000000
Si      -1.36964691      -1.35353610       1.39023467       0.00000000
Si      -1.36226754       1.39416336      -1.41589189       0.00000000
Si       1.41903819      -1.45512054      -1.55896724       0.00000000
Si       2.68260462       2.70877786       0.03142200       0.00000000
Si       2.69553888      -2.70448209       0.03486432       0.00000000
Si      -2.72504007      -2.69312796       0.00165052       0.00000000
Si      -2.73367377       2.71144975       0.02637739       0.00000000
Si       2.70309744       0.00597843       2.75279635       0.00000000
Si      -0.01093059      -2.71008585       2.75159033       0.00000000
