10
Lattice="16.28999089631971 0.0 0.0 0.0 16.28999089631971 0.0 0.0 0.0 34.45770212530097" Properties=species:S:1:pos:R:3:initial_magmoms:R:1 pbc="T T T"
Si      -0.51768154       0.40697307       2.21928400       0.00000000
Si      -0.52221505       2.16746595      -0.84969295       0.00000000
Si      -1.96591045      -1.10091892      -0.81568318       0.00000000
Si       2.27335747      -0.80426499      -0.26535891       0.00000000
Si      -2.50499542       1.67008338       2.03676145       0.00000000
Si      -1.11586337      -3.22925534      -1.45098019       0.00000000
Si      -0.61195503      -1.59405029       3.35018642       0.00000000
Si       3.64407952       1.14103305       0.08552406       0.00000000
Si       0.97582639       3.69581004       0.00730504       0.00000000
Si       2.25403753      -1.95086501      -2.41369447       0.00000000
