10
Lattice="16.28999089631971 0.0 0.0 0.0 16.28999089631971 0.0 0.0 0.0 34.45770212530097" Properties=species:S:1:pos:R:3:initial_magmoms:R:1 pbc="T T T"
Si      -1.33884252      -1.37924172       1.34932991       0.00000000
Si      -1.35834165       1.35550719      -1.35908145       0.00000000
Si       1.35672894      -1.35847197      -1.35846121       0.00000000
Si       1.35208629       1.37859012       1.35325809       0.00000000
Si       2.60333748      -0.02984328       2.71123689       0.00000000
Si      -2.71077003       2.71476108      -0.00010337       0.00000000
Si      -2.71228500      -2.71440270      -0.00086144       0.00000000
Si       2.71389771       2.71459107       0.00151614       0.00000000
Si      -2.71409319      -0.00092853      -2.71619880       0.00000000
Si       0.00118917       2.71415247      -2.71616435       0.00000000
