10
Lattice="16.28999089631971 0.0 0.0 0.0 16.28999089631971 0.0 0.0 0.0 34.45770212530097" Properties=species:S:1:pos:R:3:initial_magmoms:R:1 pbc="T T T"
Si       1.35420399       1.34904006       1.38262641       0.00000000
Si      -1.35612621      -1.36854896       1.38152376       0.00000000
Si       1.31204547      -1.45729037      -1.37081775       0.00000000
Si      -1.37391489       1.29034719      -1.55592118       0.00000000
Si      -2.28537297      -0.63578241      -2.87905086       0.00000000
Si      -0.37893798      -2.60022658      -2.78604947       0.00000000
Si       2.71422351       2.70392823      -0.00446227       0.00000000
Si      -2.72354139       2.69643483      -0.01419658       0.00000000
Si       0.00071676       2.70329292       2.74212135       0.00000000
Si       2.71573848      -0.00922014       2.74132882       0.00000000
