10
Lattice="16.28999089631971 0.0 0.0 0.0 16.28999089631971 0.0 0.0 0.0 34.45770212530097" Properties=species:S:1:pos:R:3:initial_magmoms:R:1 pbc="T T T"
Si       1.35514881      -1.35488600      -1.35487760       0.00000000
Si       1.35511623       1.35897655       1.35739302       0.00000000
Si      -1.35944937      -1.35581453       1.35746193       0.00000000
Si      -1.35782037       1.35863446      -1.36080433       0.00000000
Si       2.71184517      -2.71187558       0.00051687       0.00000000
Si       2.71321353       0.00154595       2.71475158       0.00000000
Si       0.01962945      -2.70646730      -2.72142604       0.00000000
Si      -0.00205254      -2.71347200       2.71461375       0.00000000
Si      -2.71647153      -2.71299959       0.00086144       0.00000000
Si      -0.00190593       2.71628541       2.71488941       0.00000000
