10
Lattice="16.28999089631971 0.0 0.0 0.0 16.28999089631971 0.0 0.0 0.0 34.45770212530097" Properties=species:S:1:pos:R:3:initial_magmoms:R:1 pbc="T T T"
Si      -0.33521562       0.18945270       2.30019073       0.00000000
Si       2.07243009       0.68202972      -0.89900195       0.00000000
Si      -0.51451965      -2.31143697      -0.22011592       0.00000000
Si      -1.58162868       1.44479268      -1.09703048       0.00000000
Si      -0.80554050      -2.37172300      -2.54597766       0.00000000
Si       2.09376999       2.90685276      -0.05785451       0.00000000
Si      -0.77703300       2.47575420       2.60924204       0.00000000
Si       3.76103520      -0.84088980      -0.28889354       0.00000000
Si       2.05773651       0.22445991      -3.29863767       0.00000000
Si      -2.24070579      -1.13459850       3.02011591       0.00000000
