10
Lattice="16.28999089631971 0.0 0.0 0.0 16.28999089631971 0.0 0.0 0.0 34.45770212530097" Properties=species:S:1:pos:R:3:initial_magmoms:R:1 pbc="T T T"
Si      -1.35062019      -1.34982198       1.39930394       0.00000000
Si       1.36583505       1.36484136       1.39465215       0.00000000
Si       1.34962650      -1.40608764      -1.54172460       0.00000000
Si      -1.41257106       1.44873486      -1.44765847       0.00000000
Si       2.56904703       0.36168687      -2.55557827       0.00000000
Si      -2.69159670      -2.69550630       0.02427891       0.00000000
Si       2.72354139      -2.69643483       0.01419658       0.00000000
Si      -2.71081890       2.73631275       0.03416828       0.00000000
Si       2.73303846       2.72903112       0.02904097       0.00000000
Si       0.00716760      -2.70633915       2.75583552       0.00000000
