10
Lattice="16.28999089631971 0.0 0.0 0.0 16.28999089631971 0.0 0.0 0.0 34.45770212530097" Properties=species:S:1:pos:R:3:initial_magmoms:R:1 pbc="T T T"
Si       1.62865791       1.19913948       1.12800521       0.00000000
Si       1.28803401      -0.62742564      -1.83527066       0.00000000
Si      -1.54587213       1.34149779      -1.13822541       0.00000000
Si      -1.21942053      -1.76777451       1.01385367       0.00000000
Si       0.26192691      -2.79104715      -1.79133706       0.00000000
Si       0.16399143       2.36734425       2.58461924       0.00000000
Si      -1.92246435      -0.00736308      -2.98670987       0.00000000
Si       0.27720693       0.87172677      -3.46081366       0.00000000
Si      -2.56904703      -0.36168687       2.55557827       0.00000000
Si       2.86871787      -0.35419347       2.56531258       0.00000000
