10
Lattice="16.28999089631971 0.0 0.0 0.0 16.28999089631971 0.0 0.0 0.0 34.45770212530097" Properties=species:S:1:pos:R:3:initial_magmoms:R:1 pbc="T T T"
Si      -0.67113171       0.44799129       2.19299276       0.00000000
Si      -0.86097537       1.45106433      -1.62798950       0.00000000
Si       2.22350355       0.72365067      -0.19899334       0.00000000
Si      -0.02133990      -2.22482304      -0.84114744       0.00000000
Si       0.86584608       2.98489815      -1.61413750       0.00000000
Si      -2.09376999      -2.90685276       0.05785451       0.00000000
Si       3.69620100      -1.01333574       0.34695480       0.00000000
Si       2.85149934       0.76473405      -2.58388115       0.00000000
Si      -2.87080299      -0.43109856       2.66709655       0.00000000
Si       0.33969537      -1.05116112       3.81853577       0.00000000
