10
Lattice="16.28999089631971 0.0 0.0 0.0 16.28999089631971 0.0 0.0 0.0 34.45770212530097" Properties=species:S:1:pos:R:3:initial_magmoms:R:1 pbc="T T T"
Si       0.67113171      -0.44799129      -2.19299276       0.00000000
Si      -0.88710453       2.07249525       0.67764555       0.00000000
Si      -2.19967128      -0.87908985       0.47410379       0.00000000
Si       1.01082708      -1.49915241       1.62554301       0.00000000
Si      -1.82307906       0.46977102       2.32258825       0.00000000
Si      -0.27720693      -0.87172677       3.46081366       0.00000000
Si      -1.75785390      -3.16539135       0.16505249       0.00000000
Si      -3.60800694       0.56158146      -0.72406010       0.00000000
Si       2.89463526       0.27565938      -2.39198610       0.00000000
Si       0.72501903       3.22374213       1.89155662       0.00000000
