10
Lattice="16.28999089631971 0.0 0.0 0.0 16.28999089631971 0.0 0.0 0.0 34.45770212530097" Properties=species:S:1:pos:R:3:initial_magmoms:R:1 pbc="T T T"
Si       1.73783349       0.96427026       1.23733336       0.00000000
Si       1.05168240      -1.43485578      -1.56804000       0.00000000
Si      -1.10472264      -1.70427609       1.24041043       0.00000000
Si      -1.85616405       1.64357955      -0.11250057       0.00000000
Si       0.22527441       2.26789380       2.59189395       0.00000000
Si      -2.51838513      -0.44909901       2.59624941       0.00000000
Si       2.17994409       1.85220558      -2.28479506       0.00000000
Si      -1.71154143       2.18277855      -2.52176081       0.00000000
Si       0.95558769      -0.35073999      -3.63267775       0.00000000
Si      -0.56044116      -2.58610266      -2.78195107       0.00000000
