10
Lattice="16.28999089631971 0.0 0.0 0.0 16.28999089631971 0.0 0.0 0.0 34.45770212530097" Properties=species:S:1:pos:R:3:initial_magmoms:R:1 pbc="T T T"
Si      -0.15071508      -1.56590883      -1.70800033       0.00000000
Si      -1.22416092       1.91265777      -0.51390246       0.00000000
Si      -0.46698543      -1.12199004       2.04420432       0.00000000
Si       2.33733807       0.49179510       0.13659041       0.00000000
Si       1.31999499      -2.57709429       1.77719144       0.00000000
Si       1.30407966      -3.10184406      -0.56951722       0.00000000
Si       3.04681644      -1.04326047       1.79104344       0.00000000
Si      -1.16624997       3.20940693       1.51259060       0.00000000
Si      -3.48961122       1.22538267      -0.94614011       0.00000000
Si      -1.13823117       0.43846164       3.69772700       0.00000000
