10
Lattice="16.28999089631971 0.0 0.0 0.0 16.28999089631971 0.0 0.0 0.0 34.45770212530097" Properties=species:S:1:pos:R:3:initial_magmoms:R:1 pbc="T T T"
Si      -1.28254428       1.44192085       1.36198968       0.00000000
Si       1.47404952      -1.25434629       1.36107655       0.00000000
Si      -0.60738894      -1.87866054      -1.34331797       0.00000000
Si       1.07378793       1.57907785      -1.44587497       0.00000000
Si       1.49740938      -0.14379183      -3.11976216       0.00000000
Si      -2.54611071      -2.72197755      -0.22839956       0.00000000
Si      -2.61682560       0.09687663       2.72431704       0.00000000
Si       0.09277155      -2.61977409       2.72324885       0.00000000
Si      -2.64341088       2.75199092      -0.08340836       0.00000000
Si       2.76477138       2.72201406      -0.03064325       0.00000000
