10
Lattice="16.28999089631971 0.0 0.0 0.0 16.28999089631971 0.0 0.0 0.0 34.45770212530097" Properties=species:S:1:pos:R:3:initial_magmoms:R:1 pbc="T T T"
Si       0.11311776       0.25392852      -2.31821212       0.00000000
Si       1.52427159       1.35265644       1.17562854       0.00000000
Si      -2.29203558       0.04598667       0.61562165       0.00000000
Si       0.22577940      -2.27247129       0.67413086       0.00000000
Si       2.90510973      -0.72163071       1.36028747       0.00000000
Si      -1.53124371       0.10050930       3.03217611       0.00000000
Si      -1.95235650      -3.20223933       1.19478703       0.00000000
Si      -1.22904792      -1.12730058      -3.60410537       0.00000000
Si      -3.44921202       2.02725533      -0.21932340       0.00000000
Si      -3.52513971      -1.95310584       0.01681537       0.00000000
