10
Lattice="16.28999089631971 0.0 0.0 0.0 16.28999089631971 0.0 0.0 0.0 34.45770212530097" Properties=species:S:1:pos:R:3:initial_magmoms:R:1 pbc="T T T"
Si      -0.22577940       2.27247129      -0.67413086       0.00000000
Si      -2.17813590      -0.92976804       0.52065617       0.00000000
Si       0.54558468      -0.64009926       2.29388497       0.00000000
Si       1.83914100      -1.36770840      -0.87377890       0.00000000
Si       2.70379791      -0.81547740       1.27376413       0.00000000
Si       2.67933033       1.55084058       0.68615661       0.00000000
Si      -2.51781498       2.31845796      -0.05850921       0.00000000
Si      -1.62593748      -3.02811552      -0.41183869       0.00000000
Si       0.07073118       1.34337114       3.51013916       0.00000000
Si      -1.75702311       2.37298059       2.35804525       0.00000000
