10
Lattice="16.28999089631971 0.0 0.0 0.0 16.28999089631971 0.0 0.0 0.0 34.45770212530097" Properties=species:S:1:pos:R:3:initial_magmoms:R:1 pbc="T T T"
Si      -1.70105067       1.53632619       0.52637615       0.00000000
Si      -0.80060463      -1.52997309       1.59952743       0.00000000
Si       2.28747438       0.63602676       0.11863793       0.00000000
Si      -0.48351978      -0.01462842      -2.33347689       0.00000000
Si       1.39584123       1.09511154      -3.19478210       0.00000000
Si      -0.74269368      -0.23322393       3.62602048       0.00000000
Si      -1.78346178       1.72815723       2.83128759       0.00000000
Si      -3.61983348       0.87403995      -0.69942283       0.00000000
Si       3.22359552       0.06550209      -2.04268818       0.00000000
Si       2.37671100       2.99555737       0.13958823       0.00000000
