10
Lattice="16.28999089631971 0.0 0.0 0.0 16.28999089631971 0.0 0.0 0.0 34.45770212530097" Properties=species:S:1:pos:R:3:initial_magmoms:R:1 pbc="T T T"
Si       1.35513252       1.35681809       1.35780651       0.00000000
Si       1.35752715      -1.35775144      -1.35725519       0.00000000
Si      -1.35809730       1.35743060      -1.35735856       0.00000000
Si      -1.35747828      -1.35835417       1.35770314       0.00000000
Si      -0.00074934      -2.71219978       2.71482049       0.00000000
Si      -0.00136836      -2.71342153      -2.71423471       0.00000000
Si      -2.71321353      -0.00154595      -2.71475158       0.00000000
Si       2.71436514      -2.71488763      -0.00010337       0.00000000
Si       2.71478227       2.71465801      -0.00020675       0.00000000
Si       2.71537596      -0.00135108      -2.71409688       0.00000000
