10
Lattice="16.28999089631971 0.0 0.0 0.0 16.28999089631971 0.0 0.0 0.0 34.45770212530097" Properties=species:S:1:pos:R:3:initial_magmoms:R:1 pbc="T T T"
Si      -1.35511623      -1.35897655      -1.35739302       0.00000000
Si      -1.35702216       1.35730886       1.35749639       0.00000000
Si       1.35809730      -1.35743060       1.35735856       0.00000000
Si       1.35892809       1.35898673      -1.35839229       0.00000000
Si       0.00003258      -2.71386254      -2.71227062       0.00000000
Si      -0.00074934       2.71363055       2.71454483       0.00000000
Si       2.71322982      -0.00061250       2.71516507       0.00000000
Si      -2.71456560      -2.71479107       0.00006892       0.00000000
Si      -2.71472850       2.71481972      -0.00013783       0.00000000
Si      -2.71544526      -0.00116636       2.71488941       0.00000000
