10
Lattice="16.28999089631971 0.0 0.0 0.0 16.28999089631971 0.0 0.0 0.0 34.45770212530097" Properties=species:S:1:pos:R:3:initial_magmoms:R:1 pbc="T T T"
Si      -0.57624246       0.55048145       2.19916069       0.00000000
Si      -1.85041368      -0.75822035      -1.31104738       0.00000000
Si       1.67744224      -1.80983759      -0.09382838       0.00000000
Si       0.84097078       1.95633615      -1.28616891       0.00000000
Si      -0.58142268      -2.05360115      -2.80596117       0.00000000
Si       2.15426358       0.67402807      -2.79848384       0.00000000
Si       3.36926789      -0.74336387      -1.39936252       0.00000000
Si       0.71969220      -3.47179226      -1.47802950       0.00000000
Si      -3.41065359      -2.04982187      -0.16043515       0.00000000
Si      -1.99949976      -0.95109395       3.33340551       0.00000000
