10
Lattice="16.28999089631971 0.0 0.0 0.0 16.28999089631971 0.0 0.0 0.0 34.45770212530097" Properties=species:S:1:pos:R:3:initial_magmoms:R:1 pbc="T T T"
Si       1.90966041      -1.41430757       0.22310517       0.00000000
Si      -1.81284894      -0.70190678       1.41306089       0.00000000
Si      -1.39188276      -0.65051671      -1.94379452       0.00000000
Si       0.90753219       1.93069080       1.43319453       0.00000000
Si      -0.41194152      -1.99403512       2.79668657       0.00000000
Si       0.14017545       0.10256184      -3.48688020       0.00000000
Si      -3.01746186       1.02245814      -1.57723328       0.00000000
Si       1.01998206      -3.33434213       1.32255423       0.00000000
Si       2.32671699       0.74051082       2.81993175       0.00000000
Si       3.27682539      -1.18411521      -1.72939858       0.00000000
