10
Lattice="16.28999089631971 0.0 0.0 0.0 16.28999089631971 0.0 0.0 0.0 34.45770212530097" Properties=species:S:1:pos:R:3:initial_magmoms:R:1 pbc="T T T"
Si      -1.34477208      -1.34022717      -1.39584784       0.00000000
Si       1.37012370       1.37103156      -1.39126496       0.00000000
Si      -1.37349135       1.32561504       1.54708277       0.00000000
Si       1.42060156      -1.41429780       1.47389457       0.00000000
Si       0.57909321       2.18150793       2.72102288       0.00000000
Si       2.32954398       0.49348926       2.72743202       0.00000000
Si      -2.68664454      -2.70654115      -0.01233586       0.00000000
Si       2.73389436      -2.69660587      -0.03842036       0.00000000
Si      -2.70050733       2.73052980      -0.01116430       0.00000000
Si       0.00949707      -2.70046172      -2.75582518       0.00000000
