10
Lattice="16.28999089631971 0.0 0.0 0.0 16.28999089631971 0.0 0.0 0.0 34.45770212530097" Properties=species:S:1:pos:R:3:initial_magmoms:R:1 pbc="T T T"
Si      -1.41447603       1.27141821       1.34409234       0.00000000
Si       1.32845764       1.36361961      -1.36797154       0.00000000
Si      -1.38682752      -1.35237951      -1.35660049       0.00000000
Si       1.43294170      -1.36386396       1.48523116       0.00000000
Si      -2.17785801      -0.54190314       2.75568735       0.00000000
Si      -0.42740725      -2.22992181       2.76209649       0.00000000
Si       2.67622708       2.70536175       0.00447950       0.00000000
Si       2.68295486       0.00747711      -2.72167758       0.00000000
Si       2.70157433      -2.72184723       0.00592673       0.00000000
Si      -0.03036293      -2.70912474      -2.72133300       0.00000000
