10
Lattice="16.28999089631971 0.0 0.0 0.0 16.28999089631971 0.0 0.0 0.0 34.45770212530097" Properties=species:S:1:pos:R:3:initial_magmoms:R:1 pbc="T T T"
Si      -0.47485350       1.98347040       1.21625419       0.00000000
Si      -0.47705265      -1.94983155       1.28000098       0.00000000
Si       2.15821323      -0.17537814      -1.02012084       0.00000000
Si      -0.54558468       0.64009926      -2.29388497       0.00000000
Si      -2.72372058      -0.28966878      -1.77322880       0.00000000
Si       2.13374565       2.19093984      -1.60772836       0.00000000
Si       1.45489248      -3.15113760       0.31670092       0.00000000
Si       1.29355632      -0.72760914      -3.16766387       0.00000000
Si      -0.41966298      -3.49528014      -1.29037275       0.00000000
Si       1.61085294       2.96329761       1.65324701       0.00000000
