10
Lattice="16.28999089631971 0.0 0.0 0.0 16.28999089631971 0.0 0.0 0.0 34.45770212530097" Properties=species:S:1:pos:R:3:initial_magmoms:R:1 pbc="T T T"
Si      -1.72682145      -1.53383382      -0.01385200       0.00000000
Si       0.64773927       1.09297755       1.97511659       0.00000000
Si      -0.70947837       1.53505557      -1.65445303       0.00000000
Si       1.35765747      -2.26124748       1.41514416       0.00000000
Si       1.98565326      -2.22016410      -0.96974365       0.00000000
Si       1.83627396       2.64891690       0.66355234       0.00000000
Si       0.53291106      -1.62315189      -2.85165211       0.00000000
Si      -0.86584608      -2.98489815       1.61413750       0.00000000
Si      -3.51380187      -0.07872957       0.25316088       0.00000000
Si      -0.13530474       3.52083915      -0.43699282       0.00000000
