10
Lattice="16.28999089631971 0.0 0.0 0.0 16.28999089631971 0.0 0.0 0.0 34.45770212530097" Properties=species:S:1:pos:R:3:initial_magmoms:R:1 pbc="T T T"
Si       1.43375199      -1.27731519      -1.32314204       0.00000000
Si      -1.30111488       1.41819111      -1.32793167       0.00000000
Si       0.95775004       1.66195467       1.38420113       0.00000000
Si      -0.72940104      -1.85965011       1.47699577       0.00000000
Si       0.08875527      -0.33774057       3.20670447       0.00000000
Si      -2.57010588       2.71357191       0.16698212       0.00000000
Si       0.07024248      -2.64619647      -2.67953579       0.00000000
Si      -2.64570777       0.07294662      -2.68084518       0.00000000
Si       2.64957569       2.72842839       0.07866698       0.00000000
Si       2.69696330      -2.69410536       0.04806852       0.00000000
