10
Lattice="16.28999089631971 0.0 0.0 0.0 16.28999089631971 0.0 0.0 0.0 34.45770212530097" Properties=species:S:1:pos:R:3:initial_magmoms:R:1 pbc="T T T"
Si       1.21305114       1.06490988       1.64228946       0.00000000
Si       1.42710909      -0.78415173      -1.78938947       0.00000000
Si       0.02446758      -2.36631798       0.58760752       0.00000000
Si      -1.38083814       2.07428715      -0.18465893       0.00000000
Si      -2.67933033      -1.55084058      -0.68615661       0.00000000
Si      -2.90510973       0.72163071      -1.36028747       0.00000000
Si      -0.52289271       0.77235777       3.26097538       0.00000000
Si      -0.84018933      -2.91854898      -1.55993550       0.00000000
Si      -2.13374565      -2.19093984       1.60772836       0.00000000
Si       0.04241916       3.57586255      -1.31890374       0.00000000
