10
Lattice="16.28999089631971 0.0 0.0 0.0 16.28999089631971 0.0 0.0 0.0 34.45770212530097" Properties=species:S:1:pos:R:3:initial_magmoms:R:1 pbc="T T T"
Si      -1.80696825       1.08345020       1.10598948       0.00000000
Si      -1.24626645      -1.61073891      -1.29743658       0.00000000
Si       1.45459926       1.17858054      -1.54163845       0.00000000
Si       1.85582196      -0.98367165       1.29816020       0.00000000
Si       2.30464634      -0.94975587      -2.17693546       0.00000000
Si       0.48796695      -2.33517150      -2.72781106       0.00000000
Si      -1.96898859      -3.03562521       0.40325871       0.00000000
Si      -3.25013193       1.73042384      -0.71268905       0.00000000
Si      -1.03226472       3.00088583       2.22335001       0.00000000
Si       3.46730762      -1.72076157      -0.23844743       0.00000000
