10
Lattice="16.28999089631971 0.0 0.0 0.0 16.28999089631971 0.0 0.0 0.0 34.45770212530097" Properties=species:S:1:pos:R:3:initial_magmoms:R:1 pbc="T T T"
Si      -1.44016632      -0.92391993       1.65645158       0.00000000
Si      -1.35884664       0.21857922      -1.96746698       0.00000000
Si       0.24816186       1.99327602       1.38871509       0.00000000
Si       2.23630749      -1.20783834      -0.06243739       0.00000000
Si       0.49114350      -2.45016261       1.26060128       0.00000000
Si       1.78022007       2.74635458      -0.15437059       0.00000000
Si       3.38196690       0.97629784      -0.09468982       0.00000000
Si       0.20155617       1.21585532      -3.45559259       0.00000000
Si      -1.86378777       0.79894975       3.33033877       0.00000000
Si      -1.87207938      -1.98457812      -2.85609715       0.00000000
