10
Lattice="16.28999089631971 0.0 0.0 0.0 16.28999089631971 0.0 0.0 0.0 34.45770212530097" Properties=species:S:1:pos:R:3:initial_magmoms:R:1 pbc="T T T"
Si       1.35896689       1.35632169       1.35684169       0.00000000
Si      -1.35729517       1.35744570      -1.35759976       0.00000000
Si       1.35758062      -1.35788553      -1.35735856       0.00000000
Si      -1.35871240      -1.35715248       1.35715181       0.00000000
Si       2.71627087      -0.00063531       2.71078894       0.00000000
Si      -2.71358428       0.00175932       2.71509616       0.00000000
Si       0.00042746       2.71370223       2.71592314       0.00000000
Si       0.00289188      -2.71526607      -2.71447592       0.00000000
Si       2.71524460       2.71472850      -0.00024120       0.00000000
Si       2.71514686      -2.71494027      -0.00031012       0.00000000
