10
Lattice="16.28999089631971 0.0 0.0 0.0 16.28999089631971 0.0 0.0 0.0 34.45770212530097" Properties=species:S:1:pos:R:3:initial_magmoms:R:1 pbc="T T T"
Si      -1.89982192       0.65449962       1.31011702       0.00000000
Si      -0.54156480      -0.34031439      -2.33037570       0.00000000
Si       1.13089090      -2.11986657       0.32779630       0.00000000
Si       1.58069038       1.67381379       0.95885501       0.00000000
Si       1.42474621       1.18014534      -2.67719266       0.00000000
Si       0.90417156       1.33986879       3.25201637       0.00000000
Si       3.31440250      -1.44638910      -0.49898226       0.00000000
Si      -1.26768847       0.41233248       3.57664256       0.00000000
Si      -2.12635066       3.03106401       1.18755091       0.00000000
Si      -2.76503269      -1.77344343      -2.09110128       0.00000000
