10
Lattice="16.28999089631971 0.0 0.0 0.0 16.28999089631971 0.0 0.0 0.0 34.45770212530097" Properties=species:S:1:pos:R:3:initial_magmoms:R:1 pbc="T T T"
Si      -1.43375199       1.27731519       1.32314204       0.00000000
Si       1.26321131      -1.41679017       1.37121056       0.00000000
Si       1.35117731       1.34838846      -1.35749639       0.00000000
Si      -1.36350951      -1.36888128      -1.35639374       0.00000000
Si      -2.16315303      -0.58233492       2.80013781       0.00000000
Si      -0.48988103      -2.45187306       2.62474801       0.00000000
Si       2.69800193       2.70029556       0.02443052       0.00000000
Si      -0.00540828       2.70440064      -2.71378676       0.00000000
Si       2.70873704      -0.01045818      -2.71557856       0.00000000
Si      -2.73486687       2.69550630      -0.00478962       0.00000000
