10
Lattice="16.28999089631971 0.0 0.0 0.0 16.28999089631971 0.0 0.0 0.0 34.45770212530097" Properties=species:S:1:pos:R:3:initial_magmoms:R:1 pbc="T T T"
Si      -1.42710909       0.78415173       1.78938947       0.00000000
Si      -0.81815631      -1.52190954      -1.72970870       0.00000000
Si       1.87668929      -1.46261394       0.79759288       0.00000000
Si       0.86899477       1.99969524      -1.82250334       0.00000000
Si      -2.26729842      -2.13439725       0.22945397       0.00000000
Si      -1.40264151      -1.58216625       2.37699699       0.00000000
Si      -0.08875527       0.33774057      -3.20670447       0.00000000
Si       2.80798859       1.73203425      -0.13438511       0.00000000
Si       3.85269887      -0.46547046      -0.09834234       0.00000000
Si      -0.21405795       1.84906161       3.43167893       0.00000000
