10
Lattice="16.28999089631971 0.0 0.0 0.0 16.28999089631971 0.0 0.0 0.0 34.45770212530097" Properties=species:S:1:pos:R:3:initial_magmoms:R:1 pbc="T T T"
Si      -1.72312851       0.41669820       1.46379846       0.00000000
Si      -0.24772203      -0.52688376      -2.29777869       0.00000000
Si       1.64677239       1.69508853       0.50108418       0.00000000
Si       0.16723314      -2.32596765       0.68422697       0.00000000
Si       2.49693120      -2.05029198       0.05113526       0.00000000
Si       3.33832599       0.16992099      -0.12291069       0.00000000
Si      -0.56046722      -0.35430750       3.40228649       0.00000000
Si      -2.28658562       0.63376245      -2.64786914       0.00000000
Si      -3.53980790      -0.96871743       0.91292287       0.00000000
Si      -0.50928567      -2.65991265       2.97738833       0.00000000
