10
Lattice="16.28999089631971 0.0 0.0 0.0 16.28999089631971 0.0 0.0 0.0 34.45770212530097" Properties=species:S:1:pos:R:3:initial_magmoms:R:1 pbc="T T T"
Si       0.05118155      -2.30560515      -0.42489816       0.00000000
Si      -1.61148566       0.73708992       1.53660763       0.00000000
Si      -1.16266128       0.77100570      -1.93848803       0.00000000
Si       2.21237096      -0.07376112       0.91492142       0.00000000
Si       0.72770036      -1.97166015      -2.71805952       0.00000000
Si       0.56046722       0.35430750      -3.40228649       0.00000000
Si       1.79143736      -0.45027189       3.24502145       0.00000000
Si      -2.01270836       2.89934211      -1.30319102       0.00000000
Si      -0.65875294       2.40621074       2.86267858       0.00000000
Si      -1.96167179      -0.96345576       3.12180064       0.00000000
