10
Lattice="10.86 0.0 0.0 0.0 10.86 0.0 0.0 0.0 10.86" Properties=species:S:1:pos:R:3:initial_magmoms:R:1 pbc="T T T"
Si      -1.24670628       1.37838378       1.33545420       0.00000000
Si       1.61884590       1.20084450      -1.12787616       0.00000000
Si       1.49217486      -1.20232146       1.42703658       0.00000000
Si      -2.45033094      -2.58154146       0.06637632       0.00000000
Si      -2.45033094       0.13345854      -2.64862368       0.00000000
Si       0.26466906      -2.58154146      -2.64862368       0.00000000
Si      -2.45033094       0.13345854       2.78137632       0.00000000
Si      -2.45033094       2.84845854       0.06637632       0.00000000
Si       0.43523622       2.86902738      -2.43204270       0.00000000
Si       0.26466906      -2.58154146       2.78137632       0.00000000
