10
Lattice="10.86 0.0 0.0 0.0 10.86 0.0 0.0 0.0 10.86" Properties=species:S:1:pos:R:3:initial_magmoms:R:1 pbc="T T T"
Si      -1.22750580      -1.37922000       1.35433974       0.00000000
Si      -1.49217486       1.20232146      -1.42703658       0.00000000
Si       1.48749420       1.33578000       1.35433974       0.00000000
Si       1.48749420      -1.37922000      -1.36066026       0.00000000
Si       0.12667104       2.40316596      -2.55491274       0.00000000
Si      -2.58500580      -0.02172000       2.71183974       0.00000000
Si      -2.73888114       2.58070524      -0.09158238       0.00000000
Si      -2.58500580      -2.73672000      -0.00316026       0.00000000
Si       0.12999420       2.69328000       2.71183974       0.00000000
Si       0.12999420      -2.73672000       2.71183974       0.00000000
