10
Lattice="10.86 0.0 0.0 0.0 10.86 0.0 0.0 0.0 10.86" Properties=species:S:1:pos:R:3:initial_magmoms:R:1 pbc="T T T"
Si      -1.45989894       1.34691150       1.26994668       0.00000000
Si       1.18360968      -1.66818288       1.30416654       0.00000000
Si       1.25114802       1.33539990      -1.66180806       0.00000000
Si      -1.61406750      -1.26727512      -1.50214434       0.00000000
Si      -0.17056716       2.69443116       2.49841902       0.00000000
Si       2.54443284       2.69443116      -0.21658098       0.00000000
Si      -0.43523622      -2.86902738       2.43204270       0.00000000
Si      -2.88556716      -0.02056884       2.49841902       0.00000000
Si       2.54443284      -0.02056884      -2.93158098       0.00000000
Si      -2.88556716       2.69443116      -0.21658098       0.00000000
