10
Lattice="10.86 0.0 0.0 0.0 10.86 0.0 0.0 0.0 10.86" Properties=species:S:1:pos:R:3:initial_magmoms:R:1 pbc="T T T"
Si       1.35750000       1.35750000       1.35750000       0.00000000
Si       1.35750000      -1.35750000      -1.35750000       0.00000000
Si      -1.35750000      -1.35750000       1.35750000       0.00000000
Si      -1.35750000       1.35750000      -1.35750000       0.00000000
Si       2.56112466      -0.11257476       2.62657788       0.00000000
Si      -2.43305268      -2.80273794       0.10107402       0.00000000
Si      -2.79032496       0.23425020       2.44416246       0.00000000
Si       2.62899966       0.11079372      -2.64306336       0.00000000
Si      -2.42737290       0.15773064      -2.87419674       0.00000000
Si       0.00000000       2.71500000       2.71500000       0.00000000
