10
Lattice="10.86 0.0 0.0 0.0 10.86 0.0 0.0 0.0 10.86" Properties=species:S:1:pos:R:3:initial_magmoms:R:1 pbc="T T T"
Si       1.28933178       1.34751966       1.22847234       0.00000000
Si      -1.42566822      -1.36748034       1.22847234       0.00000000
Si       1.45989894      -1.34691150      -1.26994668       0.00000000
Si      -1.42566822       1.34751966      -1.48652766       0.00000000
Si      -0.06816822       2.70501966       2.58597234       0.00000000
Si      -0.22204356      -2.83755510       2.49755022       0.00000000
Si       2.64683178       2.70501966      -0.12902766       0.00000000
Si      -2.78316822      -0.00998034       2.58597234       0.00000000
Si       2.78440626      -0.06028386       2.60002518       0.00000000
Si      -0.15416856      -2.61418662      -2.77209102       0.00000000
