10
Lattice="10.86 0.0 0.0 0.0 10.86 0.0 0.0 0.0 10.86" Properties=species:S:1:pos:R:3:initial_magmoms:R:1 pbc="T T T"
Si      -1.61884590      -1.20084450       1.12787616       0.00000000
Si      -1.18360968       1.66818288      -1.30416654       0.00000000
Si      -0.12667104      -2.40316596       2.55491274       0.00000000
Si       2.64299820       0.52436424       2.28091494       0.00000000
Si      -2.86555218       0.17753928       2.46333036       0.00000000
Si      -0.14567604      -2.49104508      -2.88211368       0.00000000
Si       3.00027048      -2.51262390      -0.06217350       0.00000000
Si       0.14089764       2.95481052       2.56580532       0.00000000
Si       2.52963066       3.01337850      -0.16139046       0.00000000
Si      -2.79767718       0.40090776      -2.80631088       0.00000000
