10
Lattice="10.86 0.0 0.0 0.0 10.86 0.0 0.0 0.0 10.86" Properties=species:S:1:pos:R:3:initial_magmoms:R:1 pbc="T T T"
Si       1.43282496      -1.59175020      -1.08666246       0.00000000
Si       1.43282496       1.12324980       1.62833754       0.00000000
Si      -1.28217504      -1.59175020       1.62833754       0.00000000
Si      -0.11336754       2.48901426      -2.44230540       0.00000000
Si      -2.50210056       2.43044628       0.28489038       0.00000000
Si      -2.64299820      -0.52436424      -2.28091494       0.00000000
Si       2.79032496      -0.23425020      -2.44416246       0.00000000
Si       2.79032496       2.48074980       0.27083754       0.00000000
Si       0.35727228      -3.03698814      -2.34308844       0.00000000
Si       0.07532496       2.48074980       2.98583754       0.00000000
