10
Lattice="16.28999089631971 0.0 0.0 0.0 16.28999089631971 0.0 0.0 0.0 34.40246978574605" Properties=species:S:1:pos:R:3:initial_magmoms:R:1 pbc="T T T"
Si      -1.53211264       1.32983415       1.16235690       0.00000000
Si      -1.39873012      -1.82685834      -0.46838989       0.00000000
Si       1.64174041      -0.76079187       1.52898422       0.00000000
Si       1.19974384       0.44132868      -2.07195871       0.00000000
Si       2.28138355      -2.37457701      -0.07620151       0.00000000
Si       0.20222080      -3.56521311      -0.41355232       0.00000000
Si      -2.78487880      -0.27365571       2.45272545       0.00000000
Si       3.13245460      -0.99468369      -1.76532932       0.00000000
Si       3.43253269       0.79708599       1.38404654       0.00000000
Si       1.37378620       2.83503015      -2.23416644       0.00000000
