10
Lattice="16.28999089631971 0.0 0.0 0.0 16.28999089631971 0.0 0.0 0.0 34.40246978574605" Properties=species:S:1:pos:R:3:initial_magmoms:R:1 pbc="T T T"
Si      -1.35661491       1.35505309      -1.35724700       0.00000000
Si       1.35775521       1.35566722       1.35700618       0.00000000
Si      -1.35677781      -1.35935028       1.35686857       0.00000000
Si       1.35479043      -1.35713484      -1.36213215       0.00000000
Si       0.02032992       2.68124480      -2.71226471       0.00000000
Si       0.00057015       2.71286369       2.71463160       0.00000000
Si      -2.71249677       2.71586105      -0.00010321       0.00000000
Si       2.71520091      -0.00194711       2.71418437       0.00000000
Si      -2.71477737      -0.00140842       2.71466601       0.00000000
Si       2.71595025       2.71418318       0.00010321       0.00000000
