10
Lattice="16.28999089631971 0.0 0.0 0.0 16.28999089631971 0.0 0.0 0.0 34.40246978574605" Properties=species:S:1:pos:R:3:initial_magmoms:R:1 pbc="T T T"
Si       1.04940180       1.51791523      -1.47074081       0.00000000
Si      -1.50746031      -1.29232678      -1.46141773       0.00000000
Si      -0.98121186       0.93696496       2.12053502       0.00000000
Si       1.98563697      -2.81940219      -0.03643224       0.00000000
Si      -2.58251886      -2.28390102       0.48768968       0.00000000
Si      -3.04390053      -0.21562910       1.79732364       0.00000000
Si      -0.63819333      -3.48686865       1.32036753       0.00000000
Si       1.91298357       3.29916157       0.04654657       0.00000000
Si       2.50295850       0.06520072      -3.00870408       0.00000000
Si      -0.22263543      -2.65573656      -3.03849663       0.00000000
