10
Lattice="16.28999089631971 0.0 0.0 0.0 16.28999089631971 0.0 0.0 0.0 34.40246978574605" Properties=species:S:1:pos:R:3:initial_magmoms:R:1 pbc="T T T"
Si       1.95761817       0.38160954      -1.27935976       0.00000000
Si       0.53268300       0.26717229       2.35684572       0.00000000
Si      -1.46466648       1.70427609      -0.94706612       0.00000000
Si       1.24616871      -0.99662220      -3.04486109       0.00000000
Si      -0.08721666      -1.94121740       2.90078347       0.00000000
Si      -2.08380051      -2.28360225       1.86733270       0.00000000
Si      -3.60339687       0.62437941      -0.85184003       0.00000000
Si      -0.95291613      -0.34305111      -3.64411805       0.00000000
Si       3.83598549      -0.41814801      -0.05817461       0.00000000
Si       1.33156089      -3.28565553       1.60164228       0.00000000
