10
Lattice="16.28999089631971 0.0 0.0 0.0 16.28999089631971 0.0 0.0 0.0 34.40246978574605" Properties=species:S:1:pos:R:3:initial_magmoms:R:1 pbc="T T T"
Si       1.13466366      -1.30088682       1.58168883       0.00000000
Si      -1.34708526      -1.36052451      -1.34792392       0.00000000
Si      -1.37751498       1.35088083       1.33667431       0.00000000
Si       1.36814823       1.35229806      -1.34585977       0.00000000
Si       1.75218498       0.82629396       2.72780776       0.00000000
Si      -2.35835217      -0.37005993       2.70221230       0.00000000
Si       0.15913701       2.78576919       2.45595929       0.00000000
Si       2.69742852      -2.68011225       0.02084791       0.00000000
Si      -2.70484047      -0.00356751      -2.70592777       0.00000000
Si       0.00935046       2.71171485      -2.70630620       0.00000000
