10
Lattice="16.28999089631971 0.0 0.0 0.0 16.28999089631971 0.0 0.0 0.0 34.40246978574605" Properties=species:S:1:pos:R:3:initial_magmoms:R:1 pbc="T T T"
Si       0.14884173      -2.34259974      -0.33280968       0.00000000
Si      -1.91148489       0.76841559      -1.24757186       0.00000000
Si      -0.36290862      -0.29527254       2.36424225       0.00000000
Si       1.99949976       1.30129407      -0.35534331       0.00000000
Si       3.29574393       0.71816094       1.52117486       0.00000000
Si      -0.42303501       1.92629250       3.13093612       0.00000000
Si      -1.79484849      -3.10754556       0.94527719       0.00000000
Si      -0.10487502      -2.54795148      -2.70025136       0.00000000
Si      -2.50163901      -1.37516922       2.45946834       0.00000000
Si       1.19099448       3.59373690      -0.39937849       0.00000000
