10
Lattice="16.28999089631971 0.0 0.0 0.0 16.28999089631971 0.0 0.0 0.0 34.40246978574605" Properties=species:S:1:pos:R:3:initial_magmoms:R:1 pbc="T T T"
Si      -0.44831709      -1.60348986       1.61388956       0.00000000
Si      -1.49822388       0.12020391      -1.78865421       0.00000000
Si       1.92502188       0.03057633      -1.34647902       0.00000000
Si      -0.44110062       2.03235669       1.10824178       0.00000000
Si       1.48423077       2.27952486      -2.01347447       0.00000000
Si       1.02771981       3.41242920      -0.02552665       0.00000000
Si      -2.80629459       2.04525837       0.80856170       0.00000000
Si      -1.43809749      -2.10136113      -2.55534808       0.00000000
Si       0.55925199      -3.53846493       0.74856376       0.00000000
Si      -3.61735740       0.49691016      -0.86618587       0.00000000
