10
Lattice="16.28999089631971 0.0 0.0 0.0 16.28999089631971 0.0 0.0 0.0 34.40246978574605" Properties=species:S:1:pos:R:3:initial_magmoms:R:1 pbc="T T T"
Si      -0.66354057      -2.17673496      -0.62533404       0.00000000
Si      -0.42323049       1.45083627      -1.85398454       0.00000000
Si       2.55945222       0.04041549      -0.11376903       0.00000000
Si      -1.81986993       0.34704216       1.86296358       0.00000000
Si      -2.72437218       1.43584947      -1.35931115       0.00000000
Si       1.04720265       3.22193394      -0.92848878       0.00000000
Si       0.43520364       3.26827899       1.75593744       0.00000000
Si       1.11482244      -3.63934890       0.01940300       0.00000000
Si      -0.63776979       1.69533288       3.35026717       0.00000000
Si       2.94969546       1.92158469      -1.61406158       0.00000000
