10
Lattice="16.28999089631971 0.0 0.0 0.0 16.28999089631971 0.0 0.0 0.0 34.40246978574605" Properties=species:S:1:pos:R:3:initial_magmoms:R:1 pbc="T T T"
Si      -1.72436166       0.50787333      -1.56441879       0.00000000
Si       1.22492655       2.05842069      -0.22475146       0.00000000
Si      -0.82402965       0.27207558       2.24462480       0.00000000
Si       0.80850528      -2.29244283       0.04403519       0.00000000
Si       1.36842516       0.49187655       3.30549435       0.00000000
Si      -1.19099448      -3.59373690       0.39937849       0.00000000
Si      -3.70068075      -0.51929262      -0.80202523       0.00000000
Si      -2.67889050       1.94693193       2.08499725       0.00000000
Si      -2.25735417       2.78878284      -1.59747958       0.00000000
Si       2.10474945      -2.87557596       1.92055335       0.00000000
