10
Lattice="16.28999089631971 0.0 0.0 0.0 16.28999089631971 0.0 0.0 0.0 34.40246978574605" Properties=species:S:1:pos:R:3:initial_magmoms:R:1 pbc="T T T"
Si       1.35363384      -1.35154872       1.35507964       0.00000000
Si      -1.35806472      -1.35584928      -1.35772863       0.00000000
Si       1.35633798       1.35825025      -1.35769423       0.00000000
Si      -1.35692442       1.36063854       1.36082486       0.00000000
Si       2.69371440       0.00659745       2.71026249       0.00000000
Si       2.71195920      -2.71409319       0.00147931       0.00000000
Si      -0.00131949      -2.71401174      -2.71476921       0.00000000
Si       2.71427238       0.00130320      -2.71507884       0.00000000
Si      -2.71551042      -2.71389771       0.00196094       0.00000000
Si       2.71450044       2.71552575       0.00013761       0.00000000
