10
Lattice="16.28999089631971 0.0 0.0 0.0 16.28999089631971 0.0 0.0 0.0 34.40246978574605" Properties=species:S:1:pos:R:3:initial_magmoms:R:1 pbc="T T T"
Si       0.05227461       2.30475807       0.55941887       0.00000000
Si       2.10385350      -1.01968884       0.50502854       0.00000000
Si      -1.71326817      -1.20357036       1.24592054       0.00000000
Si       0.19896606      -0.04256577      -2.46669286       0.00000000
Si       1.35993807       1.97897436       2.51437471       0.00000000
Si       3.12600213       0.94094298       1.36010240       0.00000000
Si      -2.24204157       2.67265143       1.01673116       0.00000000
Si       0.65282175      -0.02319696       3.64212271       0.00000000
Si       1.76901255      -1.93393251       2.61864866       0.00000000
Si      -1.16071137      -2.03365989      -2.88908662       0.00000000
