10
Lattice="16.28999089631971 0.0 0.0 0.0 16.28999089631971 0.0 0.0 0.0 34.40246978574605" Properties=species:S:1:pos:R:3:initial_magmoms:R:1 pbc="T T T"
Si       1.57218048      -0.63544032       1.62469195       0.00000000
Si      -1.79079228      -1.55787786       0.14493769       0.00000000
Si      -0.39957741       2.35465827       0.00657088       0.00000000
Si       1.22611572      -0.37480032      -2.04698250       0.00000000
Si      -0.30007809      -1.79176968      -3.14937586       0.00000000
Si      -1.15114914      -3.17166300      -1.46024805       0.00000000
Si      -3.43253269      -0.79708599      -1.38404654       0.00000000
Si       1.17051795       3.37592561      -1.41452714       0.00000000
Si       1.39602042       1.76223591      -3.13960555       0.00000000
Si      -1.99168056       3.12748193      -1.55354760       0.00000000
