10
Lattice="16.28999089631971 0.0 0.0 0.0 16.28999089631971 0.0 0.0 0.0 34.40246978574605" Properties=species:S:1:pos:R:3:initial_magmoms:R:1 pbc="T T T"
Si       0.79236189       0.70304382      -2.09614366       0.00000000
Si       0.73394595      -2.22000120       0.29063223       0.00000000
Si       1.27449702       1.43782056       1.36509076       0.00000000
Si      -2.29540761       0.81759510      -0.05724574       0.00000000
Si       0.09992286       2.93855310      -1.72979155       0.00000000
Si       1.06435602       3.56626774       0.30951919       0.00000000
Si       0.21572847       1.58115627       3.46422744       0.00000000
Si      -2.12550291       2.95463133      -1.14986879       0.00000000
Si      -0.73487448      -3.60007371       1.42440066       0.00000000
Si       1.19045691      -3.35290554      -1.69731560       0.00000000
