10
Lattice="16.28999089631971 0.0 0.0 0.0 16.28999089631971 0.0 0.0 0.0 34.40246978574605" Properties=species:S:1:pos:R:3:initial_magmoms:R:1 pbc="T T T"
Si      -1.47668850       1.27298205      -1.24554211       0.00000000
Si      -1.40467041      -0.35121240       1.81163507       0.00000000
Si       1.27715229      -1.50045398      -1.24870714       0.00000000
Si       1.69187940       0.86651397       1.39037659       0.00000000
Si      -1.36339155      -2.62953180       2.12504175       0.00000000
Si      -0.09356976       2.59499700      -2.61304105       0.00000000
Si       2.62194066      -0.12346191      -2.61486438       0.00000000
Si       2.69832447       2.66230728       0.20517644       0.00000000
Si      -2.80567557      -0.12367368      -2.60829351       0.00000000
Si       2.70275535      -2.73984165       0.27804092       0.00000000
