10
Lattice="16.28999089631971 0.0 0.0 0.0 16.28999089631971 0.0 0.0 0.0 34.40246978574605" Properties=species:S:1:pos:R:3:initial_magmoms:R:1 pbc="T T T"
Si      -1.55168766      -0.01840770      -1.78659006       0.00000000
Si       1.76052546       1.16551692      -1.08460727       0.00000000
Si      -1.34322453       0.84740580       1.83320543       0.00000000
Si       1.60554240      -1.82293245       0.32740849       0.00000000
Si       3.01418757       1.85694597       0.84509714       0.00000000
Si      -0.43474752      -1.90112445      -3.08115572       0.00000000
Si      -0.04698036       0.26427267       3.70972360       0.00000000
Si       2.20056723       0.69085890       2.95885487       0.00000000
Si       0.23641677      -3.72233016       0.47685290       0.00000000
Si      -1.44350577       2.05082955      -2.84694358       0.00000000
