10
Lattice="16.28999089631971 0.0 0.0 0.0 16.28999089631971 0.0 0.0 0.0 34.40246978574605" Properties=species:S:1:pos:R:3:initial_magmoms:R:1 pbc="T T T"
Si       1.29624417      -0.58313313       1.87651817       0.00000000
Si      -1.99949976      -1.30129407       0.35534331       0.00000000
Si       1.34322453      -0.84740580      -1.83320543       0.00000000
Si      -0.80850528       2.29244283      -0.04403519       0.00000000
Si       3.54379176      -0.15654690       1.12564944       0.00000000
Si      -0.20846313      -0.86581350      -3.61979549       0.00000000
Si      -1.63253493       2.56451841       2.20058961       0.00000000
Si       1.05987627      -2.91923316       2.38729192       0.00000000
Si      -2.36240838      -1.59656661       2.71958556       0.00000000
Si      -3.91098465      -0.53287848      -0.89222855       0.00000000
