10
Lattice="16.28999089631971 0.0 0.0 0.0 16.28999089631971 0.0 0.0 0.0 34.40246978574605" Properties=species:S:1:pos:R:3:initial_magmoms:R:1 pbc="T T T"
Si       0.11240100       1.55571129       1.72315187       0.00000000
Si       1.65736089       0.20012265      -1.64760400       0.00000000
Si      -2.00459853       0.67147380      -1.05467711       0.00000000
Si       0.24236262      -2.31024780       0.53402984       0.00000000
Si      -1.70906535      -0.44703018      -3.10661356       0.00000000
Si      -0.83667069       0.42008652       3.59206709       0.00000000
Si       1.50030900       2.15993997      -2.79134915       0.00000000
Si      -0.06706593      -3.58288776      -1.37465466       0.00000000
Si       2.44801233      -2.73088818       1.23477414       0.00000000
Si       0.53848224      -0.02044395      -3.85748229       0.00000000
