10
Lattice="16.28999089631971 0.0 0.0 0.0 16.28999089631971 0.0 0.0 0.0 34.40246978574605" Properties=species:S:1:pos:R:3:initial_magmoms:R:1 pbc="T T T"
Si       1.36392912       1.35117405       1.37774400       0.00000000
Si      -1.35146727      -1.36844145       1.37798482       0.00000000
Si       1.37155284      -1.25879346      -1.47915566       0.00000000
Si      -1.31028615       1.40497992      -1.47681629       0.00000000
Si      -2.70770751       2.69355150       0.00784033       0.00000000
Si       2.69951364       2.71609686       0.03573043       0.00000000
Si       2.71358820      -2.70448209       0.00302054       0.00000000
Si      -2.70391194      -2.72062548      -0.00031994       0.00000000
Si       0.00724905       2.70723510       2.73770879       0.00000000
Si      -2.71063971      -0.00780291       2.73798401       0.00000000
