10
Lattice="16.28999089631971 0.0 0.0 0.0 16.28999089631971 0.0 0.0 0.0 34.40246978574605" Properties=species:S:1:pos:R:3:initial_magmoms:R:1 pbc="T T T"
Si      -1.35485559      -1.35663120       1.35697178       0.00000000
Si      -1.35777150       1.35713619      -1.35752222       0.00000000
Si       1.35757602      -1.35786924      -1.35803825       0.00000000
Si       1.35819504       1.35972630       1.35755662       0.00000000
Si       0.00614133       2.70681156       2.71449399       0.00000000
Si      -2.71309950      -0.00117288      -2.71487242       0.00000000
Si      -0.00179190      -2.71249677       2.71593890       0.00000000
Si      -2.71450044       2.71394658      -0.00017201       0.00000000
Si       0.00047241       2.71489140      -2.71442519       0.00000000
Si       2.71498914       2.71446786      -0.00065365       0.00000000
