10
Lattice="16.28999089631971 0.0 0.0 0.0 16.28999089631971 0.0 0.0 0.0 34.40246978574605" Properties=species:S:1:pos:R:3:initial_magmoms:R:1 pbc="T T T"
Si      -1.34679204      -1.33880994       1.35600851       0.00000000
Si       1.35205371      -1.34708526      -1.35693737       0.00000000
Si      -1.36563957       1.36526490      -1.35580209       0.00000000
Si       1.35863487       1.36656810       1.38432176       0.00000000
Si      -2.47564017       0.19186362       2.70902400       0.00000000
Si       2.70301599      -2.70337437       0.00602044       0.00000000
Si      -0.00614133      -2.70681156      -2.71449399       0.00000000
Si       2.70884781       0.00765630      -2.71514764       0.00000000
Si      -2.72033226      -2.70891297       0.00223616       0.00000000
Si       2.69980686       2.72971530      -0.00106648       0.00000000
