10
Lattice="16.28999089631971 0.0 0.0 0.0 16.28999089631971 0.0 0.0 0.0 34.40246978574605" Properties=species:S:1:pos:R:3:initial_magmoms:R:1 pbc="T T T"
Si       1.26294741       1.93722309       0.07781843       0.00000000
Si      -1.28137140       0.21527235       1.94663044       0.00000000
Si      -1.33045317      -0.38897262      -1.90624192       0.00000000
Si       1.22631120      -2.45773746       2.08578851       0.00000000
Si       2.78511759       1.34884458       1.83650807       0.00000000
Si      -3.42950112      -0.87882921      -0.72434441       0.00000000
Si      -0.28945701       3.49879878       1.02024021       0.00000000
Si      -0.36821916      -1.38269520       3.46226649       0.00000000
Si       3.16607553      -1.03509918       1.75315084       0.00000000
Si       0.23947929      -1.70085519      -3.40732572       0.00000000
