10
Lattice="16.28999089631971 0.0 0.0 0.0 16.28999089631971 0.0 0.0 0.0 34.40246978574605" Properties=species:S:1:pos:R:3:initial_magmoms:R:1 pbc="T T T"
Si      -1.46882043      -1.38007251       1.13376843       0.00000000
Si       0.45651096      -1.13290434      -1.98794783       0.00000000
Si      -0.73394595       2.22000120      -0.29063223       0.00000000
Si       1.93240125      -0.37971990       1.30099893       0.00000000
Si      -1.02771981      -3.41242920       0.02552665       0.00000000
Si      -0.85142943      -0.89283861       3.42913690       0.00000000
Si       3.50650395       1.09792971       0.45428487       0.00000000
Si       0.89730207      -3.38185287      -1.32095237       0.00000000
Si      -1.73594385      -1.35270531      -3.04881738       0.00000000
Si       0.05841594       2.92304502      -2.38677588       0.00000000
