10
Lattice="16.28999089631971 0.0 0.0 0.0 16.28999089631971 0.0 0.0 0.0 34.40246978574605" Properties=species:S:1:pos:R:3:initial_magmoms:R:1 pbc="T T T"
Si       1.28010078      -1.37057544       1.44141613       0.00000000
Si      -1.81983735      -0.85102218      -1.25192216       0.00000000
Si      -1.38142458       1.33778014       1.42543961       0.00000000
Si       1.76081868       1.00087389      -1.48951222       0.00000000
Si      -0.38828844      -0.72335745      -3.13219667       0.00000000
Si       2.74458807      -2.55603132       0.13022374       0.00000000
Si      -2.60565066       2.72885586      -0.01389517       0.00000000
Si      -3.49588287       0.86429853      -1.22724274       0.00000000
Si      -2.72969901      -2.68169238      -0.07113059       0.00000000
Si       2.73854448       2.68523775      -0.06215842       0.00000000
