10
Lattice="16.28999089631971 0.0 0.0 0.0 16.28999089631971 0.0 0.0 0.0 34.40246978574605" Properties=species:S:1:pos:R:3:initial_magmoms:R:1 pbc="T T T"
Si      -1.35500220      -1.35812988      -1.35886391       0.00000000
Si      -1.35832536       1.36254447       1.35360033       0.00000000
Si       1.35990549       1.35847197      -1.35955196       0.00000000
Si       1.36563957      -1.36526490       1.35580209       0.00000000
Si      -2.69899236       0.00035838       2.71617971       0.00000000
Si       0.01884753      -2.70407484       2.71181060       0.00000000
Si      -2.71195920       2.71409319      -0.00147931       0.00000000
Si      -2.71349046      -2.71476108      -0.00240817       0.00000000
Si      -2.71327869       0.00008145      -2.71624852       0.00000000
Si      -0.01824480       2.72069064       2.70878318       0.00000000
