10
Lattice="16.28999089631971 0.0 0.0 0.0 16.28999089631971 0.0 0.0 0.0 34.40246978574605" Properties=species:S:1:pos:R:3:initial_magmoms:R:1 pbc="T T T"
Si       1.35576535       1.35782037       1.35686857       0.00000000
Si       1.35491501      -1.35966114      -1.35803825       0.00000000
Si      -1.35869504      -1.35782037       1.35717819       0.00000000
Si      -1.35683798       1.35697329      -1.36072165       0.00000000
Si       0.02596361       2.70177795      -2.70168939       0.00000000
Si       2.71345377       0.00004887       2.71404676       0.00000000
Si       2.71566921      -2.71236645      -0.00017201       0.00000000
Si      -0.00059002       2.71526607       2.71356513       0.00000000
Si      -0.00090841      -2.71489140       2.71404676       0.00000000
Si       2.71377957       2.71612944      -0.00116968       0.00000000
