10
Lattice="16.28999089631971 0.0 0.0 0.0 16.28999089631971 0.0 0.0 0.0 34.40246978574605" Properties=species:S:1:pos:R:3:initial_magmoms:R:1 pbc="T T T"
Si       1.42938953       0.81375229      -1.67650209       0.00000000
Si       1.41887759      -1.62835884       0.99557363       0.00000000
Si      -0.44442378       1.23117214       1.99850939       0.00000000
Si      -1.24587549      -1.89755109      -1.11178524       0.00000000
Si      -0.24166215       2.51711125      -2.09160253       0.00000000
Si       0.49518572      -3.48406677      -0.01830212       0.00000000
Si      -2.36353239      -0.04079831       2.74115592       0.00000000
Si       1.89077120      -1.25451963      -2.98613605       0.00000000
Si       1.40615021       0.75832556       3.40656886       0.00000000
Si      -1.61653815      -3.50990271       0.97964528       0.00000000
