10
Lattice="16.28999089631971 0.0 0.0 0.0 16.28999089631971 0.0 0.0 0.0 34.40246978574605" Properties=species:S:1:pos:R:3:initial_magmoms:R:1 pbc="T T T"
Si      -1.19723355       1.82381211       0.85239047       0.00000000
Si       1.73509092      -0.53997766       1.50201267       0.00000000
Si      -0.61818921      -2.30246837      -0.16953547       0.00000000
Si       0.45313893       0.75768048      -2.24441838       0.00000000
Si       0.44830080       3.45084102       0.36728097       0.00000000
Si       1.54683391      -1.18798246      -3.05218883       0.00000000
Si      -0.28207764      -2.61324899      -2.53006225       0.00000000
Si       3.49569458      -1.14208538       0.02944853       0.00000000
Si      -2.76156225      -2.31633116       0.76483614       0.00000000
Si      -1.80838548       0.83753406      -3.16740276       0.00000000
