10
Lattice="16.28999089631971 0.0 0.0 0.0 16.28999089631971 0.0 0.0 0.0 34.40246978574605" Properties=species:S:1:pos:R:3:initial_magmoms:R:1 pbc="T T T"
Si       1.19723355      -1.82381211      -0.85239047       0.00000000
Si      -2.20564971       0.42064038      -0.70074430       0.00000000
Si      -0.27969930       0.27319959       2.33166310       0.00000000
Si       1.64553435       1.62702891      -0.48510950       0.00000000
Si       1.65037248      -1.06613163      -3.09680885       0.00000000
Si      -2.51507826      -0.85199958      -2.60942879       0.00000000
Si      -2.49556284       0.98903106       2.60653898       0.00000000
Si       1.29114540       1.92740022       3.01964407       0.00000000
Si       2.93232447      -2.36378977       0.64962220       0.00000000
Si       1.54619793       3.34669905       1.10803537       0.00000000
