10
Lattice="16.28999089631971 0.0 0.0 0.0 16.28999089631971 0.0 0.0 0.0 34.40246978574605" Properties=species:S:1:pos:R:3:initial_magmoms:R:1 pbc="T T T"
Si      -1.37018448      -1.32688566       1.34878398       0.00000000
Si      -1.35237951       1.35856971      -1.35587090       0.00000000
Si       1.35962597      -1.35594702      -1.35683417       0.00000000
Si       1.35804096       1.37557647       1.36725812       0.00000000
Si       0.08322807      -2.50672149       2.70623740       0.00000000
Si      -2.71306692       0.00105885      -2.71442519       0.00000000
Si       0.00245863      -2.71386513      -2.71452840       0.00000000
Si      -2.71441899      -2.71453302       0.00013761       0.00000000
Si       2.71362797       2.71673217       0.00130729       0.00000000
Si       0.00277701       2.71629234      -2.71501003       0.00000000
