10
Lattice="16.28999089631971 0.0 0.0 0.0 16.28999089631971 0.0 0.0 0.0 34.40246978574605" Properties=species:S:1:pos:R:3:initial_magmoms:R:1 pbc="T T T"
Si       0.13440879      -0.95040747       2.10742767       0.00000000
Si       0.91375173      -1.58935014      -1.44039781       0.00000000
Si      -2.30177700       0.35357445      -0.28984097       0.00000000
Si       1.18899963       2.02338090      -0.36349670       0.00000000
Si      -2.45882889       2.31339177      -1.43358612       0.00000000
Si      -0.29103714      -1.16090685      -3.47172718       0.00000000
Si       0.13924692      -3.64356801      -0.50427168       0.00000000
Si      -0.33306534       3.33312948      -1.69862289       0.00000000
Si       0.03507237       0.76926267       3.70057254       0.00000000
Si       3.17668751      -0.95526189      -1.81297677       0.00000000
