10
Lattice="16.28999089631971 0.0 0.0 0.0 16.28999089631971 0.0 0.0 0.0 34.40246978574605" Properties=species:S:1:pos:R:3:initial_magmoms:R:1 pbc="T T T"
Si       0.09933642      -1.71967014      -1.59314486       0.00000000
Si       2.12869479       0.96570378      -0.33803886       0.00000000
Si      -0.25505253      -1.41929883       1.91160870       0.00000000
Si      -1.74987180       1.65721428       0.21965989       0.00000000
Si       2.33511353      -2.54876598      -1.32084916       0.00000000
Si      -1.82589723      -3.07349946       1.22362773       0.00000000
Si      -0.03507237      -0.76926267      -3.70057254       0.00000000
Si       1.90809887       2.48761332      -2.17502856       0.00000000
Si      -1.54619793      -3.34669905      -1.10803537       0.00000000
Si       0.03121164      -0.10081881       3.86312430       0.00000000
