10
Lattice="16.28999089631971 0.0 0.0 0.0 16.28999089631971 0.0 0.0 0.0 34.40246978574605" Properties=species:S:1:pos:R:3:initial_magmoms:R:1 pbc="T T T"
Si      -0.13440879       0.95040747      -2.10742767       0.00000000
Si      -0.09933642       1.71967014       1.59314486       0.00000000
Si      -1.64553435      -1.62702891       0.48510950       0.00000000
Si       2.23577711      -0.82909584       0.27229570       0.00000000
Si      -0.44830080      -3.45084102      -0.36728097       0.00000000
Si      -0.35438895       0.30037131       3.50475357       0.00000000
Si       2.02935837       2.68537392       1.25510601       0.00000000
Si      -2.43618579       1.30398192      -2.39726864       0.00000000
Si      -1.92523365      -1.35382932       2.81677259       0.00000000
Si       0.77934294      -0.63894267      -3.54782548       0.00000000
