10
Lattice="16.28999089631971 0.0 0.0 0.0 16.28999089631971 0.0 0.0 0.0 34.40246978574605" Properties=species:S:1:pos:R:3:initial_magmoms:R:1 pbc="T T T"
Si       1.54817946      -1.62842985       0.50619822       0.00000000
Si       0.28626417       1.31848002       1.95151559       0.00000000
Si      -1.57084470      -1.65420063      -0.68798098       0.00000000
Si       0.25505253       1.41929883      -1.91160870       0.00000000
Si       1.31440493      -0.35137530       3.22596169       0.00000000
Si       0.35438895      -0.30037131      -3.50475357       0.00000000
Si      -1.29114540      -1.92740022      -3.01964407       0.00000000
Si      -1.49481927       3.07651311      -1.69194881       0.00000000
Si       2.67675229      -2.52923427      -1.28366007       0.00000000
Si      -3.78670824      -0.93836916      -0.41310509       0.00000000
