10
Lattice="16.28999089631971 0.0 0.0 0.0 16.28999089631971 0.0 0.0 0.0 34.40246978574605" Properties=species:S:1:pos:R:3:initial_magmoms:R:1 pbc="T T T"
Si      -1.35205371       1.34708526       1.35693737       0.00000000
Si       1.35679410       1.35474156      -1.35821027       0.00000000
Si       1.35096228      -1.35628911       1.36295781       0.00000000
Si      -1.35819504      -1.35972630      -1.35755662       0.00000000
Si      -2.69884575       0.00827532       2.71294588       0.00000000
Si      -0.00076563       2.71283886      -2.71504443       0.00000000
Si      -2.71305063      -2.71635750      -0.00058484       0.00000000
Si       2.71608057       2.71383255       0.00199534       0.00000000
Si      -2.71769328       2.71235016       0.00113528       0.00000000
Si       2.71505430      -0.00254124      -2.71538846       0.00000000
