10
Lattice="16.28999089631971 0.0 0.0 0.0 16.28999089631971 0.0 0.0 0.0 34.40246978574605" Properties=species:S:1:pos:R:3:initial_magmoms:R:1 pbc="T T T"
Si      -1.26294741      -1.93722309      -0.07781843       0.00000000
Si      -1.55240442       1.56157569       0.94242178       0.00000000
Si       1.52217018      -0.58837851       1.75868964       0.00000000
Si       0.78001407       0.78366303      -2.14203658       0.00000000
Si       3.38961898       0.58420827       0.79407825       0.00000000
Si      -2.54431881      -1.72195074       1.86881201       0.00000000
Si      -2.20079529       0.37419759       2.90597825       0.00000000
Si       1.90312812      -2.97232227       1.67533241       0.00000000
Si      -2.59340058      -2.32619571      -1.98406035       0.00000000
Si       1.71445734      -0.93434553      -3.50564803       0.00000000
