10
Lattice="16.28999089631971 0.0 0.0 0.0 16.28999089631971 0.0 0.0 0.0 34.40246978574605" Properties=species:S:1:pos:R:3:initial_magmoms:R:1 pbc="T T T"
Si      -1.68909381       1.17430605      -1.17336569       0.00000000
Si       1.82891155       1.42526653      -0.52212658       0.00000000
Si       0.30336867      -2.08733544      -1.10129248       0.00000000
Si      -0.33611157       0.31078062       2.36052678       0.00000000
Si       0.73521657       3.37092947       0.28564387       0.00000000
Si      -0.89337618      -1.64061477      -3.10854010       0.00000000
Si      -1.11953025       0.73943798      -3.38283115       0.00000000
Si       0.28207764       2.61324899       2.53006225       0.00000000
Si      -3.70289619       0.34731909      -0.35135262       0.00000000
Si       3.71070629       0.38162583       0.49484540       0.00000000
