10
Lattice="16.28999089631971 0.0 0.0 0.0 16.28999089631971 0.0 0.0 0.0 34.40246978574605" Properties=species:S:1:pos:R:3:initial_magmoms:R:1 pbc="T T T"
Si       2.26025935      -0.40959576      -0.37973467       0.00000000
Si      -0.58093398      -1.85515407       1.31472552       0.00000000
Si      -1.19674485       0.44672067      -2.00724762       0.00000000
Si      -0.30336867       2.08733544       1.10129248       0.00000000
Si       3.23329526       0.07525980       1.75834562       0.00000000
Si       3.02914898       1.32796080      -1.77630372       0.00000000
Si      -3.43126044      -0.25865262      -1.53242447       0.00000000
Si      -2.92850217      -1.69570755       1.67581404       0.00000000
Si      -1.99246248       3.26164149      -0.07207321       0.00000000
Si      -0.04046436      -3.85502850       0.19258513       0.00000000
