10
Lattice="16.28999089631971 0.0 0.0 0.0 16.28999089631971 0.0 0.0 0.0 34.40246978574605" Properties=species:S:1:pos:R:3:initial_magmoms:R:1 pbc="T T T"
Si       2.10841470       0.54611803       0.90722804       0.00000000
Si      -0.20813733      -2.35431225       0.03828997       0.00000000
Si      -1.14782598       1.42125430       1.56521004       0.00000000
Si      -0.02878443      -0.02399517      -2.47653198       0.00000000
Si       1.08191664       2.53085417       1.54993534       0.00000000
Si      -0.97987608      -2.18632977      -2.18706943       0.00000000
Si       2.00274147      -3.04797303      -0.58969306       0.00000000
Si      -1.08571221      -0.14612130       3.55229781       0.00000000
Si      -2.98703214       2.32146251       0.31550523       0.00000000
Si       2.11458861      -0.01013238      -3.41090358       0.00000000
