10
Lattice="16.28999089631971 0.0 0.0 0.0 16.28999089631971 0.0 0.0 0.0 34.40246978574605" Properties=species:S:1:pos:R:3:initial_magmoms:R:1 pbc="T T T"
Si       1.35693440      -1.35727954      -1.35731580       0.00000000
Si      -1.35778663       1.35707103      -1.35686857       0.00000000
Si       1.35716735       1.35791811       1.35769423       0.00000000
Si      -1.35918757      -1.35624513       1.35855429       0.00000000
Si      -0.00245863       2.71386513       2.71452840       0.00000000
Si      -0.00146366      -2.71486629      -2.71390915       0.00000000
Si       0.00090841       2.71489140      -2.71404676       0.00000000
Si      -2.71477621       0.00008145      -2.71418437       0.00000000
Si       2.71429702      -2.71474451       0.00055044       0.00000000
Si       2.71436218       2.71494027       0.00000000       0.00000000
