10
Lattice="16.28999089631971 0.0 0.0 0.0 16.28999089631971 0.0 0.0 0.0 34.40246978574605" Properties=species:S:1:pos:R:3:initial_magmoms:R:1 pbc="T T T"
Si       1.41118641       1.86852816       0.17424861       0.00000000
Si       1.32374169      -1.49195223      -1.24894796       0.00000000
Si      -2.23577711       0.82909584      -0.27229570       0.00000000
Si       0.08658624      -1.39976712       1.94879780       0.00000000
Si       2.96508951      -1.48729329       0.42435470       0.00000000
Si      -0.94898698      -3.16172284       0.86243600       0.00000000
Si       3.23925021       0.73622655       1.24887916       0.00000000
Si      -0.20641873       3.51446976       0.98281031       0.00000000
Si      -2.33511353       2.54876598       1.32084916       0.00000000
Si      -2.37018590       1.77950331      -2.37972337       0.00000000
