10
Lattice="16.28999089631971 0.0 0.0 0.0 16.28999089631971 0.0 0.0 0.0 34.40246978574605" Properties=species:S:1:pos:R:3:initial_magmoms:R:1 pbc="T T T"
Si      -1.74195160      -0.52857792      -1.37293453       0.00000000
Si       0.76413132      -1.98377991       1.02120348       0.00000000
Si      -1.97572613       0.74847663       1.34682893       0.00000000
Si       1.89413604       0.96550830      -1.44941126       0.00000000
Si       1.92145437      -0.72498645       2.61152188       0.00000000
Si      -0.64593760       2.16554373       2.62630119       0.00000000
Si      -0.61337877      -1.42938234      -3.16279283       0.00000000
Si       2.46998754      -2.52503145      -0.65323446       0.00000000
Si       0.73780668       3.48928542       1.03888636       0.00000000
Si       3.67249905      -0.49710564      -0.80467422       0.00000000
