10
Lattice="16.28999089631971 0.0 0.0 0.0 16.28999089631971 0.0 0.0 0.0 34.40246978574605" Properties=species:S:1:pos:R:3:initial_magmoms:R:1 pbc="T T T"
Si      -1.32589702      -1.37156913      -1.34389195       0.00000000
Si      -1.35195338       1.35873261       1.35748781       0.00000000
Si       1.36191893      -1.35721764       1.35662775       0.00000000
Si       1.37768765       1.35115776      -1.36371122       0.00000000
Si      -2.63127224       0.00646713      -2.63978555       0.00000000
Si       0.23267333      -2.58193242      -2.69226999       0.00000000
Si      -2.71011584      -0.00076563       2.71456280       0.00000000
Si      -2.70869861      -2.71637379      -0.00292421       0.00000000
Si      -2.71330868       2.71451673       0.00206415       0.00000000
Si       0.00409042       2.71383255       2.71476921       0.00000000
