10
Lattice="16.28999089631971 0.0 0.0 0.0 16.28999089631971 0.0 0.0 0.0 34.40246978574605" Properties=species:S:1:pos:R:3:initial_magmoms:R:1 pbc="T T T"
Si      -1.35782526      -1.35615879       1.35528605       0.00000000
Si       1.35785295      -1.35653346      -1.35662775       0.00000000
Si      -1.35724208       1.35814617      -1.35676536       0.00000000
Si       1.35832536       1.35863487       1.36003360       0.00000000
Si      -2.70601547      -0.00759114       2.71373714       0.00000000
Si      -2.71328588       0.00304623      -2.71404676       0.00000000
Si      -2.71378315      -2.71376739      -0.00017201       0.00000000
Si       0.00058644      -2.71290402      -2.71490682       0.00000000
Si       2.71386513       0.00166158      -2.71442519       0.00000000
Si      -0.00293220      -2.71332756       2.71614531       0.00000000
