10
Lattice="16.28999089631971 0.0 0.0 0.0 16.28999089631971 0.0 0.0 0.0 34.40246978574605" Properties=species:S:1:pos:R:3:initial_magmoms:R:1 pbc="T T T"
Si       2.13846812      -0.60411465      -0.78055807       0.00000000
Si      -1.18899963      -2.02338090       0.36349670       0.00000000
Si       0.75417161       1.23349509       1.88904067       0.00000000
Si      -1.52206497       1.30974858      -1.33512620       0.00000000
Si      -0.84677931       2.97184986       1.83420310       0.00000000
Si      -0.27524789      -3.61273104      -1.07690111       0.00000000
Si      -3.64782852       0.29001087      -1.07008942       0.00000000
Si       2.90305556       1.19892771      -2.18012013       0.00000000
Si       3.59487557      -0.73212147       1.14687578       0.00000000
Si      -0.65160882       1.39483125      -3.52852569       0.00000000
