10
Lattice="16.28999089631971 0.0 0.0 0.0 16.28999089631971 0.0 0.0 0.0 34.40246978574605" Properties=species:S:1:pos:R:3:initial_magmoms:R:1 pbc="T T T"
Si       1.57260402      -1.60790445       0.59523186       0.00000000
Si       0.85107105       1.37989332      -1.68912781       0.00000000
Si      -0.63964314       1.61378514       1.60518573       0.00000000
Si      -2.07916275      -1.19063610      -0.33735081       0.00000000
Si      -2.28138355       2.37457701       0.07620151       0.00000000
Si       0.76154121      -3.15625266      -1.07951570       0.00000000
Si       1.18226304      -1.60432065       2.95035746       0.00000000
Si      -1.85856682      -2.71254564       1.49963890       0.00000000
Si      -1.08163971       2.81590569      -1.99575719       0.00000000
Si       1.15114914       3.17166300       1.46024805       0.00000000
