10
Lattice="16.28999089631971 0.0 0.0 0.0 16.28999089631971 0.0 0.0 0.0 34.40246978574605" Properties=species:S:1:pos:R:3:initial_magmoms:R:1 pbc="T T T"
Si       1.06632385       0.53225946      -2.03827867       0.00000000
Si       1.97082610      -0.55654785       1.18399606       0.00000000
Si      -1.77084747      -1.62750132       0.21749254       0.00000000
Si      -0.89991694       1.86357600       1.33010343       0.00000000
Si       0.58708183      -1.88028954       2.77141089       0.00000000
Si       0.92865706       2.94998868      -1.68730448       0.00000000
Si      -0.74270671      -3.29735664       1.49193863       0.00000000
Si      -2.27686374       0.70811001       2.82389532       0.00000000
Si      -3.58104114      -0.64376451       1.47009408       0.00000000
Si       3.79069603      -0.90359001      -0.67896752       0.00000000
