10
Lattice="16.28999089631971 0.0 0.0 0.0 16.28999089631971 0.0 0.0 0.0 34.40246978574605" Properties=species:S:1:pos:R:3:initial_magmoms:R:1 pbc="T T T"
Si      -1.34889345       1.37508991       1.37771304       0.00000000
Si       1.36764324      -1.37300265       1.38259131       0.00000000
Si      -1.74475674      -1.05700923      -1.37234422       0.00000000
Si       1.99888074       0.88441668      -1.25817746       0.00000000
Si      -0.44932707      -2.41398252      -2.76805320       0.00000000
Si       2.76506460      -2.66157423      -0.10206530       0.00000000
Si      -2.66202872      -2.77558794      -0.03181886       0.00000000
Si      -2.70716505      -0.00027693       2.75025882       0.00000000
Si      -2.63476252       2.82070865      -0.12627778       0.00000000
Si       0.00920385       2.71176439       2.75610724       0.00000000
