10
Lattice="16.28999089631971 0.0 0.0 0.0 16.28999089631971 0.0 0.0 0.0 34.40246978574605" Properties=species:S:1:pos:R:3:initial_magmoms:R:1 pbc="T T T"
Si       1.34997185      -1.34617302       1.35986159       0.00000000
Si       1.35639011       1.35856088      -1.35666215       0.00000000
Si      -1.35824937      -1.35650088      -1.35707498       0.00000000
Si      -1.35462110       1.35545774       1.36385227       0.00000000
Si       2.71240229       2.71454835       0.00061924       0.00000000
Si      -2.71422744      -2.71283886       0.00288981       0.00000000
Si       2.71451999      -2.71412577       0.00251138       0.00000000
Si       2.71438967       0.00061902      -2.71445959       0.00000000
Si      -0.00104745      -2.71461447      -2.71428758       0.00000000
Si      -0.00097251       2.71602585      -2.71452840       0.00000000
