10
Lattice="16.28999089631971 0.0 0.0 0.0 16.28999089631971 0.0 0.0 0.0 34.40246978574605" Properties=species:S:1:pos:R:3:initial_magmoms:R:1 pbc="T T T"
Si       1.62936245       1.80538812      -0.29059782       0.00000000
Si      -1.50728423       1.16235666       1.58375298       0.00000000
Si      -0.60442727      -0.43179903      -2.39544531       0.00000000
Si       0.25064690      -2.48402952       0.47588963       0.00000000
Si       0.23377698      -0.42415902       2.67723610       0.00000000
Si       3.57368798       0.60242049       0.54208002       0.00000000
Si       1.66860506      -2.42962092       2.33008058       0.00000000
Si      -3.83129708       0.75536730       0.94703172       0.00000000
Si      -0.26140874       3.05990775       2.69553822       0.00000000
Si      -2.35895801      -2.28457476      -2.46022520       0.00000000
