10
Lattice="10.86 0.0 0.0 0.0 10.86 0.0 0.0 0.0 10.86" Properties=species:S:1:pos:R:3:initial_magmoms:R:1 pbc="T T T"
Si      -1.22849406       1.43097876      -1.22784246       0.00000000
Si      -1.22849406      -1.28402124       1.48715754       0.00000000
Si       1.40642430      -1.31314776      -1.44985344       0.00000000
Si       1.48650594       1.43097876       1.48715754       0.00000000
Si      -2.58599406       0.07347876      -2.58534246       0.00000000
Si      -2.58599406      -2.64152124       0.12965754       0.00000000
Si       2.77322046       0.13064580      -2.53848156       0.00000000
Si       0.12900594       2.78847876      -2.58534246       0.00000000
Si      -2.58599406       2.78847876       0.12965754       0.00000000
Si       0.25870692      -2.79302910      -2.59695180       0.00000000
