10
Lattice="10.86 0.0 0.0 0.0 10.86 0.0 0.0 0.0 10.86" Properties=species:S:1:pos:R:3:initial_magmoms:R:1 pbc="T T T"
Si      -1.20340746      -1.37983902       1.37083608       0.00000000
Si       1.51159254       1.33516098       1.37083608       0.00000000
Si       1.51159254      -1.37983902      -1.34416392       0.00000000
Si      -2.57527524      -2.66522862      -0.09570918       0.00000000
Si       0.41928288       2.59581150      -2.62777248       0.00000000
Si      -2.56090746      -0.02233902       2.72833608       0.00000000
Si       0.15409254       2.69266098       2.72833608       0.00000000
Si       0.15409254      -2.73733902       2.72833608       0.00000000
Si      -2.75800560       2.79011862       0.06540978       0.00000000
Si      -0.11089146      -2.63312646      -2.91202212       0.00000000
