10
Lattice="10.86 0.0 0.0 0.0 10.86 0.0 0.0 0.0 10.86" Properties=species:S:1:pos:R:3:initial_magmoms:R:1 pbc="T T T"
Si       1.14934638      -1.38571428      -1.33000248       0.00000000
Si      -1.56565362       1.32928572      -1.33000248       0.00000000
Si      -1.56565362      -1.38571428       1.38499752       0.00000000
Si      -0.32662536       2.42446242       2.06433396       0.00000000
Si       2.24186238       0.07599828       2.53213932       0.00000000
Si       2.50684638      -0.02821428      -2.68750248       0.00000000
Si       2.50684638      -2.74321428       0.02749752       0.00000000
Si      -2.79345264       2.53527786       0.01588818       0.00000000
Si      -0.20815362       2.68678572      -2.68750248       0.00000000
Si      -0.20815362      -2.74321428      -2.68750248       0.00000000
