10
Lattice="16.290000149 0.0 0.0 0.0 16.290000149 0.0 0.0 0.0 29.1751946751" Properties=species:S:1:pos:R:3:initial_magmoms:R:1 pbc="T T T"
Si      -0.67745224       2.05251395       0.76494443       0.00000000
Si       2.04833720      -0.62445761       0.89302353       0.00000000
Si      -1.24374151      -1.78420462       0.84275467       0.00000000
Si      -0.63273619      -0.67300670      -2.14697340       0.00000000
Si      -0.66608182      -2.81892914      -1.16490717       0.00000000
H        0.70120306       2.30681715      -2.14320980       0.00000000
Si      -1.29404503       1.53455711       2.94669466       0.00000000
Si      -3.54524160       0.80136049      -0.76722009       0.00000000
Si       1.53725473      -1.87339237       2.82675544       0.00000000
Si       1.08794395       3.53987242       0.43333917       0.00000000
