10
Lattice="16.290000149 0.0 0.0 0.0 16.290000149 0.0 0.0 0.0 29.1751946751" Properties=species:S:1:pos:R:3:initial_magmoms:R:1 pbc="T T T"
Si       1.13420755      -0.06542064      -1.00120516       0.00000000
H        0.66898144       0.92240497       1.61575146       0.00000000
H       -0.92580958       1.76849129       0.44617625       0.00000000
Si      -2.28454220       1.19475748       0.17195860       0.00000000
Si      -2.73717614      -1.01328688       0.78291635       0.00000000
Si       0.13571199       0.66935611       3.00262351       0.00000000
Si       1.35570268      -2.19504494      -1.91832740       0.00000000
Si       3.19279116       0.63664579      -0.10430132       0.00000000
Si       0.92027098       1.44226774      -2.83915489       0.00000000
Si      -1.66206872      -0.92489734       2.88402634       0.00000000
