10
Lattice="16.290000149 0.0 0.0 0.0 16.290000149 0.0 0.0 0.0 29.1751946751" Properties=species:S:1:pos:R:3:initial_magmoms:R:1 pbc="T T T"
Si       1.72403588      -0.75886966      -1.37409332       0.00000000
Si       1.36006840       1.34348518       1.34252576       0.00000000
Si      -1.43534775       1.18913743      -1.44671038       0.00000000
Si      -1.18970595      -1.69407857       1.19209845       0.00000000
Si      -1.66261606      -0.66603295      -2.87883316       0.00000000
Si       0.64892845      -0.84725920      -3.47520331       0.00000000
Si       2.57048057      -2.60219720      -0.24720142       0.00000000
Si      -2.64991518      -0.41598144       2.53832946       0.00000000
Si      -0.08477316       2.53646705       2.70076994       0.00000000
Si      -2.90066259       2.39262635      -0.10319266       0.00000000
