10
Lattice="16.290000149 0.0 0.0 0.0 16.290000149 0.0 0.0 0.0 29.1751946751" Properties=species:S:1:pos:R:3:initial_magmoms:R:1 pbc="T T T"
H       -0.90253117       1.51756012      -1.52215743       0.00000000
Si      -2.32046165      -0.07835490       0.32833764       0.00000000
Si       0.99180037      -0.40901095      -2.15024102       0.00000000
Si       1.04710492       2.14151600       0.38893452       0.00000000
Si       0.07179003      -2.07352154       1.27696910       0.00000000
H       -3.03678183       1.15968511      -0.13102580       0.00000000
Si       2.86778937       1.25115346       1.53216452       0.00000000
Si       2.91250542      -1.47436719      -1.37975331       0.00000000
Si      -3.06136344      -1.80674021      -1.05129896       0.00000000
Si       3.54524160      -0.80136049       0.76722009       0.00000000
