10
Lattice="16.290000149 0.0 0.0 0.0 16.290000149 0.0 0.0 0.0 29.1751946751" Properties=species:S:1:pos:R:3:initial_magmoms:R:1 pbc="T T T"
Si      -1.25915185      -1.36858807       1.42468894       0.00000000
Si      -1.45083628       1.41928255      -1.21476758       0.00000000
Si       0.95527819      -1.27078291      -1.75453786       0.00000000
Si       1.38839671       1.37873674       1.34132374       0.00000000
Si       2.34799175       0.16513173      -2.92997728       0.00000000
Si      -2.68581377       0.00700470       2.71815953       0.00000000
Si      -2.06940017      -3.22781466       0.24416487       0.00000000
Si       2.73680148       0.01642032       2.71736596       0.00000000
Si       0.02446758       2.72658764       2.73083615       0.00000000
Si      -0.18832869       2.90173773      -2.54323090       0.00000000
