10
Lattice="16.290000149 0.0 0.0 0.0 16.290000149 0.0 0.0 0.0 29.1751946751" Properties=species:S:1:pos:R:3:initial_magmoms:R:1 pbc="T T T"
Si       1.25915185       1.36858807      -1.42468894       0.00000000
Si       1.37508778      -1.26434836       1.41715882       0.00000000
Si      -0.81024832      -1.85922659      -1.18052407       0.00000000
Si      -1.42666192       1.37559277       1.29347059       0.00000000
Si      -2.68335398      -2.66168828       0.01578086       0.00000000
Si      -0.05203026      -2.65486277       2.69858297       0.00000000
Si       2.66232359      -2.71326242       0.08883847       0.00000000
Si       2.64754856       2.74732482      -0.08336520       0.00000000
Si      -0.08294868       2.74479987       2.65648317       0.00000000
Si      -0.19168443       2.78787063      -2.63945652       0.00000000
