10
Lattice="16.290000149 0.0 0.0 0.0 16.290000149 0.0 0.0 0.0 29.1751946751" Properties=species:S:1:pos:R:3:initial_magmoms:R:1 pbc="T T T"
Si       1.75682765       0.32554425      -1.48428803       0.00000000
Si      -1.92070505       1.06535624      -0.77048772       0.00000000
Si       0.63273619       0.67300670       2.14697340       0.00000000
Si      -0.03334563      -2.14592244       0.98206623       0.00000000
Si       1.87320341      -1.98062781      -1.72609204       0.00000000
Si      -0.61100533      -1.11119793       2.98972807       0.00000000
H        1.33393924       2.97982384       0.00376360       0.00000000
Si      -0.75238624       2.49596197      -2.28100425       0.00000000
Si      -2.91250542       1.47436719       1.37975331       0.00000000
Si       2.16443603      -2.86388791       0.51570074       0.00000000
