10
Lattice="16.290000149 0.0 0.0 0.0 16.290000149 0.0 0.0 0.0 29.1751946751" Properties=species:S:1:pos:R:3:initial_magmoms:R:1 pbc="T T T"
Si      -2.19778166       0.71796547       0.46636549       0.00000000
Si      -0.27238509      -2.03146076       1.19609546       0.00000000
Si       1.57990195       1.31264821       1.20175544       0.00000000
Si      -0.29123262       0.88326010      -2.24179278       0.00000000
H        2.23335902      -0.96817987      -1.63754533       0.00000000
H        0.79861726      -1.87462064      -2.18463858       0.00000000
H        1.60800220      -2.61920396      -0.53110524       0.00000000
H        1.04014909      -2.49346145       1.79981776       0.00000000
Si      -2.16443603       2.86388791      -0.51570074       0.00000000
Si      -0.40760838       3.18943216      -1.99998877       0.00000000
