10
Lattice="16.290000149 0.0 0.0 0.0 16.290000149 0.0 0.0 0.0 29.1751946751" Properties=species:S:1:pos:R:3:initial_magmoms:R:1 pbc="T T T"
Si       0.61659280       0.51795684      -2.18175023       0.00000000
Si      -2.30215169      -0.05460408       0.45145696       0.00000000
Si       0.76709611       2.04597515       0.88199531       0.00000000
Si       1.22194549      -1.87049275       0.95420392       0.00000000
Si       1.69440437       1.00506043       2.71845711       0.00000000
Si       3.02733363      -0.54283167       1.56834176       0.00000000
Si       1.29404503      -1.53455711      -2.94669466       0.00000000
Si      -0.24202053      -0.02599884       3.61769496       0.00000000
Si      -2.44490096       0.35741889       2.81082578       0.00000000
Si      -3.14823801       2.03564729      -0.32801671       0.00000000
