10
Lattice="16.290000149 0.0 0.0 0.0 16.290000149 0.0 0.0 0.0 29.1751946751" Properties=species:S:1:pos:R:3:initial_magmoms:R:1 pbc="T T T"
Si      -1.30303711      -1.35420400       1.43383828       0.00000000
Si       1.36050335      -1.45797130      -1.28688574       0.00000000
Si       1.39074247       1.28650276       1.43462601       0.00000000
Si      -1.30044700       1.52990794      -1.31845914       0.00000000
Si       2.70542693       0.00400734      -2.52130399       0.00000000
Si      -2.53219907       2.73090319       0.27759322       0.00000000
Si      -2.64955223      -2.68752422       0.04549872       0.00000000
Si       2.80267824       2.67664250       0.17820501       0.00000000
Si      -2.64696212      -0.05149269       2.85773366       0.00000000
Si       0.10939501       2.63142146       2.89099338       0.00000000
