10
Lattice="16.290000149 0.0 0.0 0.0 16.290000149 0.0 0.0 0.0 29.1751946751" Properties=species:S:1:pos:R:3:initial_magmoms:R:1 pbc="T T T"
Si       1.53567460      -1.27345447      -1.19667896       0.00000000
Si       1.39709557       1.32092353       1.36413874       0.00000000
Si      -1.21575529      -1.43488837       1.44180311       0.00000000
Si      -1.47056347       1.20899494      -1.45517118       0.00000000
H        0.35763066      -1.81565084      -2.24867813       0.00000000
Si      -2.66903507       2.68201820      -0.02587840       0.00000000
Si       2.85669132       2.50044986      -0.05123164       0.00000000
Si      -2.64660374      -0.06281424       2.72600182       0.00000000
Si      -0.13937724       2.54146808      -2.85216703       0.00000000
Si       0.06685416       2.76136680       2.67801154       0.00000000
