10
Lattice="16.290000149 0.0 0.0 0.0 16.290000149 0.0 0.0 0.0 29.1751946751" Properties=species:S:1:pos:R:3:initial_magmoms:R:1 pbc="T T T"
Si       1.39271356       1.43591464      -1.17543942       0.00000000
Si       1.70230502      -1.59659920       0.01447090       0.00000000
Si      -0.95527819       1.27078291       1.75453786       0.00000000
Si      -1.59614308      -0.81189361      -1.55996848       0.00000000
Si      -2.07332606       1.21738429      -2.61949485       0.00000000
Si      -0.17466138       2.71578737      -2.29979307       0.00000000
Si       0.62397217      -3.35469747      -1.04479290       0.00000000
Si      -2.40611447       2.69006546       0.53977028       0.00000000
Si      -0.30333609      -2.31378275      -2.88125470       0.00000000
Si       2.35558289      -2.02074194       2.14597269       0.00000000
