10
Lattice="16.290000149 0.0 0.0 0.0 16.290000149 0.0 0.0 0.0 29.1751946751" Properties=species:S:1:pos:R:3:initial_magmoms:R:1 pbc="T T T"
Si      -1.34684744      -1.34804638       1.36735385       0.00000000
Si       1.35176050      -1.36928854      -1.35819284       0.00000000
Si      -1.36601425       1.34783461      -1.37129250       0.00000000
Si       1.33103962       1.34482096       1.41458849       0.00000000
Si      -2.64736172       2.69275331       0.08507487       0.00000000
Si       0.04592151       2.73797436      -2.62771351       0.00000000
Si       2.70464501       0.02868669      -2.67827995       0.00000000
Si      -2.71161713      -2.67788054      -0.01056142       0.00000000
Si       2.71766072       2.70454727       0.11042811       0.00000000
Si       0.00469152      -2.70756092       2.72531329       0.00000000
