10
Lattice="16.290000149 0.0 0.0 0.0 16.290000149 0.0 0.0 0.0 29.1751946751" Properties=species:S:1:pos:R:3:initial_magmoms:R:1 pbc="T T T"
Si       1.39083695      -1.35140212       1.32601260       0.00000000
Si       1.37589902       1.35009892      -1.34838997       0.00000000
Si      -1.31513263      -1.36567216      -1.39282379       0.00000000
Si      -1.37049726       1.33885882       1.37954908       0.00000000
Si      -2.66389069      -2.71847522      -0.03530199       0.00000000
Si       0.03359975      -2.71782362       2.66643774       0.00000000
Si      -2.70297040       2.70810338       0.01059060       0.00000000
Si       0.02937576       2.71140048      -2.70287756       0.00000000
Si       0.00356425       2.70932187       2.70547415       0.00000000
Si      -2.68330837      -0.00780291      -2.73240286       0.00000000
