10
Lattice="16.290000149 0.0 0.0 0.0 16.290000149 0.0 0.0 0.0 29.1751946751" Properties=species:S:1:pos:R:3:initial_magmoms:R:1 pbc="T T T"
Si      -1.29692836      -1.44877462       1.27125076       0.00000000
Si       1.29155266      -1.43051353      -1.33403578       0.00000000
Si      -1.44339175       1.61597714      -0.92289893       0.00000000
Si       1.10941417       1.12703278       1.75547146       0.00000000
Si      -0.87705361       2.00866388       2.69386243       0.00000000
Si      -2.36019296       0.15101417       2.59379151       0.00000000
Si      -0.08783568       2.63371119      -2.54757800       0.00000000
Si       0.22033854      -2.45083769       2.78293429       0.00000000
Si       1.74231326      -0.61216908       3.23690032       0.00000000
Si       2.39622644       2.81666418       0.66005960       0.00000000
