10
Lattice="16.290000149 0.0 0.0 0.0 16.290000149 0.0 0.0 0.0 29.1751946751" Properties=species:S:1:pos:R:3:initial_magmoms:R:1 pbc="T T T"
Si       0.59670271       0.09210366       1.40245161       0.00000000
H        2.11346462      -0.75730582      -0.29977513       0.00000000
Si       1.39874086      -0.83614942      -1.62669215       0.00000000
Si      -0.47395755      -2.29438136      -1.78362553       0.00000000
Si      -1.11475729       0.53897094       2.93108593       0.00000000
H       -3.11674944      -0.61348141       0.79694962       0.00000000
Si       1.07388568      -1.93717424       2.46197798       0.00000000
Si       1.05656941       1.11215089      -2.99815971       0.00000000
H       -1.70057828      -2.65569356       1.20878667       0.00000000
Si       2.49536738       1.59050674       1.72215339       0.00000000
