10
Lattice="16.290000149 0.0 0.0 0.0 16.290000149 0.0 0.0 0.0 29.1751946751" Properties=species:S:1:pos:R:3:initial_magmoms:R:1 pbc="T T T"
Si       1.34910523       1.35589816      -1.33832453       0.00000000
Si       1.39400047      -1.44943534       1.19589123       0.00000000
Si      -1.37984446      -1.36401058      -1.33566959       0.00000000
Si      -1.29880171       1.34930071       1.43136423       0.00000000
Si      -0.02143764      -2.77527846       2.43443659       0.00000000
Si       2.65106720       2.67219859       0.10794822       0.00000000
Si      -2.68749164       2.68438677       0.05309885       0.00000000
Si       2.70368390      -0.02845863      -2.67361484       0.00000000
Si      -0.01879866       2.70333367      -2.67889555       0.00000000
Si      -2.64290591      -0.02868669       2.74328520       0.00000000
