10
Lattice="16.290000149 0.0 0.0 0.0 16.290000149 0.0 0.0 0.0 29.1751946751" Properties=species:S:1:pos:R:3:initial_magmoms:R:1 pbc="T T T"
H       -0.71632018       1.23804001      -0.45936344       0.00000000
Si      -0.74090179      -1.72838531      -1.37963661       0.00000000
Si       2.32046165       0.07835490      -0.32833764       0.00000000
Si      -0.72339004      -0.60294340       2.15587184       0.00000000
H        1.41793048       1.59591502      -1.85049507       0.00000000
H       -2.68878833       0.37784655      -1.57236794       0.00000000
Si       2.39225168      -1.99516664       0.94863145       0.00000000
Si      -1.98324562      -0.44509656      -2.81593144       0.00000000
Si       1.34245891      -1.32250529       3.01808636       0.00000000
Si      -2.10113798       2.93301453       0.29452359       0.00000000
