10
Lattice="16.290000149 0.0 0.0 0.0 16.290000149 0.0 0.0 0.0 29.1751946751" Properties=species:S:1:pos:R:3:initial_magmoms:R:1 pbc="T T T"
Si       1.30176649       1.23615037      -1.50118047       0.00000000
Si       1.45085257      -1.34871427       1.28134538       0.00000000
Si      -1.50943141       1.32410008       1.25333719       0.00000000
Si      -1.43337340      -1.40582701      -1.31971076       0.00000000
Si       2.50497848      -2.81748585      -0.19719514       0.00000000
Si      -2.82324762      -0.16617429       2.52753464       0.00000000
Si      -0.11593593       2.60335379      -2.76058610       0.00000000
Si       0.13664052      -2.71137278       2.66095281       0.00000000
Si       2.48580515      -0.21620088      -2.91232628       0.00000000
Si       3.15636672       2.16894836      -0.39474038       0.00000000
