10
Lattice="16.290000149 0.0 0.0 0.0 16.290000149 0.0 0.0 0.0 29.1751946751" Properties=species:S:1:pos:R:3:initial_magmoms:R:1 pbc="T T T"
H       -0.88599682       0.85006108      -0.88765530       0.00000000
Si       1.03247650      -1.48724443      -1.46964208       0.00000000
Si      -1.39259953      -1.23215932       1.42692960       0.00000000
Si       1.89627005       1.29945331       0.63438543       0.00000000
Si       1.94665502       0.34744941      -2.64082192       0.00000000
Si       0.00791694       1.83317888      -2.95276310       0.00000000
H       -2.78915754       0.42606495      -2.12990591       0.00000000
Si       2.14806458       0.78675814       2.93115420       0.00000000
Si       0.00614133      -2.65707821       2.65044974       0.00000000
Si       2.53579916      -2.79762834      -0.17583890       0.00000000
