10
Lattice="16.290000149 0.0 0.0 0.0 16.290000149 0.0 0.0 0.0 29.1751946751" Properties=species:S:1:pos:R:3:initial_magmoms:R:1 pbc="T T T"
Si      -0.71472376      -0.07884360      -1.32691703       0.00000000
H       -2.11346462       0.75730582       0.29977513       0.00000000
H        1.14605038       1.63320283      -1.12677519       0.00000000
H        1.79926310       1.21409371      -1.08315828       0.00000000
Si      -1.51676191       0.84940948       1.70222673       0.00000000
Si       0.25322805      -2.68175756       1.44046689       0.00000000
Si       2.24257916      -2.07837596       0.27121261       0.00000000
Si       0.88938514      -0.86579722      -2.85441352       0.00000000
Si       0.38190276       2.34781256       2.02192852       0.00000000
Si      -1.03957894      -1.17986842       2.76175310       0.00000000
