10
Lattice="16.290000149 0.0 0.0 0.0 16.290000149 0.0 0.0 0.0 29.1751946751" Properties=species:S:1:pos:R:3:initial_magmoms:R:1 pbc="T T T"
H        0.84250252       0.93444328       0.81037021       0.00000000
Si      -1.29197620       1.29556000      -1.42710465       0.00000000
Si      -1.83198971      -0.82197712       1.16350676       0.00000000
Si       1.43112538      -1.44104599      -1.12301159       0.00000000
H        1.65188747       0.18985995       2.46390354       0.00000000
H        2.27724428       1.84088405       1.35746346       0.00000000
Si      -2.37319238       2.71686251       0.07048727       0.00000000
Si       2.77918806      -0.05025465      -2.46755044       0.00000000
Si       0.07265340      -2.75011041      -2.51242189       0.00000000
Si      -1.20554146      -1.21598335       3.31386449       0.00000000
