10
Lattice="16.290000149 0.0 0.0 0.0 16.290000149 0.0 0.0 0.0 29.1751946751" Properties=species:S:1:pos:R:3:initial_magmoms:R:1 pbc="T T T"
Si       1.29793834       1.28299504       1.50668583       0.00000000
Si      -1.33481890      -1.36510087       1.40827206       0.00000000
Si       1.48071214      -1.29959878      -1.33949154       0.00000000
Si      -1.35708733       1.38667274      -1.39833791       0.00000000
Si      -0.00715131      -2.54894405      -2.71679413       0.00000000
Si      -2.60693759       2.72847843       0.08998097       0.00000000
Si       2.69676065      -2.71386401       0.11052731       0.00000000
Si       2.36579672       2.37746150      -1.87401028       0.00000000
Si       2.28607346       3.07068246       0.35501544       0.00000000
Si       3.09759240       0.18803661      -2.27645291       0.00000000
