10
Lattice="16.290000149 0.0 0.0 0.0 16.290000149 0.0 0.0 0.0 29.1751946751" Properties=species:S:1:pos:R:3:initial_magmoms:R:1 pbc="T T T"
H       -1.05068872       1.10898900       0.02964200       0.00000000
Si      -0.83445526      -1.93446032       1.00138021       0.00000000
Si       0.27940608      -0.73660774      -2.20001390       0.00000000
Si       1.87675300       0.90839394       1.09593701       0.00000000
Si       2.55167051      -1.21652744      -2.12806787       0.00000000
Si       0.94335391       1.72018492       3.09169538       0.00000000
Si      -2.39544452      -2.70808872      -0.59744964       0.00000000
H        0.18725355       3.27273596      -1.72340792       0.00000000
Si      -2.87759595       0.53456939       2.37468580       0.00000000
Si       0.93902077      -3.08557689       2.02694665       0.00000000
