10
Lattice="16.290000149 0.0 0.0 0.0 16.290000149 0.0 0.0 0.0 29.1751946751" Properties=species:S:1:pos:R:3:initial_magmoms:R:1 pbc="T T T"
Si      -1.34656399      -1.33021046       1.34599177       0.00000000
Si       1.31481478      -1.32337355      -1.40083238       0.00000000
Si      -1.20265813       1.39735621      -1.44096578       0.00000000
Si       1.42866559       1.40418172       1.24183633       0.00000000
Si       2.30294990       0.46431387      -2.55250277       0.00000000
Si       0.67044754       2.19981791      -2.63727072       0.00000000
Si      -2.64766259      -2.65759949      -0.07935361       0.00000000
Si      -2.70220151       0.06511113       2.63541868       0.00000000
Si       2.69803127      -2.64744074      -0.03549454       0.00000000
Si       0.05110173       2.75312406       2.59247279       0.00000000
