10
Lattice="16.290000149 0.0 0.0 0.0 16.290000149 0.0 0.0 0.0 29.1751946751" Properties=species:S:1:pos:R:3:initial_magmoms:R:1 pbc="T T T"
H       -0.65321272       0.41910912      -0.04361692       0.00000000
Si       1.97967485       0.61862905       1.08164117       0.00000000
H       -1.79926310      -1.21409371       1.08315828       0.00000000
Si       0.74492542      -0.54830511      -2.49897212       0.00000000
Si       0.20212632       2.16430571       1.71448032       0.00000000
Si      -2.51398685      -1.29293731      -0.24375875       0.00000000
Si      -0.90987796      -2.07989093      -1.77125524       0.00000000
Si       2.60781725       0.29136294      -1.24613091       0.00000000
Si       1.21969747      -1.25449291       2.36281149       0.00000000
Si      -0.73681300       1.25167474      -2.61748177       0.00000000
