10
Lattice="16.290000149 0.0 0.0 0.0 16.290000149 0.0 0.0 0.0 29.1751946751" Properties=species:S:1:pos:R:3:initial_magmoms:R:1 pbc="T T T"
Si      -1.31481478       1.32337355       1.40083238       0.00000000
Si       0.98813512       1.78768742      -1.15167039       0.00000000
Si       1.38321649      -1.32406719       1.36533784       0.00000000
Si      -1.29793834      -1.28299504      -1.50668583       0.00000000
Si      -2.51747291       2.72072976      -0.04013340       0.00000000
Si       1.06785838       1.09446647      -3.38069611       0.00000000
Si      -2.63275724      -2.64809591      -0.09841377       0.00000000
Si      -0.64436725       3.52319146      -1.23643833       0.00000000
Si       0.11385081       2.72755527       2.64266871       0.00000000
Si       0.03352482      -2.71928321       2.67563668       0.00000000
