10
Lattice="16.290000149 0.0 0.0 0.0 16.290000149 0.0 0.0 0.0 29.1751946751" Properties=species:S:1:pos:R:3:initial_magmoms:R:1 pbc="T T T"
Si      -1.30901554      -1.28922319       1.46982880       0.00000000
Si      -1.34840476       1.36231642      -1.37604222       0.00000000
Si       1.43084845      -1.37207413      -1.28419871       0.00000000
Si       1.37184607       1.40620168       1.31178677       0.00000000
Si      -2.62086554      -2.64935675       0.12448180       0.00000000
Si       2.64660374       0.06281424      -2.72600182       0.00000000
Si       2.74580985      -2.63529848       0.18844258       0.00000000
Si      -2.71233389       2.71016732       0.01347019       0.00000000
Si       2.71104698       0.06983523       2.73320226       0.00000000
Si      -2.73680148      -0.01642032      -2.71736596       0.00000000
