10
Lattice="16.290000149 0.0 0.0 0.0 16.290000149 0.0 0.0 0.0 29.1751946751" Properties=species:S:1:pos:R:3:initial_magmoms:R:1 pbc="T T T"
Si       1.30054474      -1.34941474       1.41788529       0.00000000
Si      -1.37756386       1.34894233       1.35063646       0.00000000
Si      -1.42866559      -1.40418172      -1.24183633       0.00000000
Si       1.42711804       1.39051441      -1.28142415       0.00000000
Si      -2.63132372      -0.00682551      -2.68280211       0.00000000
Si       2.71435385      -0.05839965      -2.60974450       0.00000000
Si       0.05203026       2.65486277      -2.69858297       0.00000000
Si      -0.11385081      -2.72755527      -2.64266871       0.00000000
Si       2.63065583      -2.76906056       0.13190106       0.00000000
Si      -0.03023424       2.70612740       2.71247620       0.00000000
