10
Lattice="16.290000149 0.0 0.0 0.0 16.290000149 0.0 0.0 0.0 29.1751946751" Properties=species:S:1:pos:R:3:initial_magmoms:R:1 pbc="T T T"
Si       1.34183989      -1.35596332      -1.34247908       0.00000000
Si       1.30442176       1.18372915       1.55329612       0.00000000
Si      -1.32082579      -1.40300884       1.34302465       0.00000000
Si      -1.21604851       1.41426523      -1.45001885       0.00000000
Si      -0.16211808      -2.64039725      -2.62767558       0.00000000
Si       0.40083174       2.90190063      -2.38698022       0.00000000
Si      -2.70257618      -0.04665456       2.66707084       0.00000000
Si      -2.69676065       2.71386401      -0.11052731       0.00000000
Si      -2.73430910      -2.69785208      -0.00071975       0.00000000
Si      -0.01560582       2.67279186       2.76149636       0.00000000
