10
Lattice="16.290000149 0.0 0.0 0.0 16.290000149 0.0 0.0 0.0 29.1751946751" Properties=species:S:1:pos:R:3:initial_magmoms:R:1 pbc="T T T"
Si       1.34646013      -1.35156502      -1.36280252       0.00000000
Si      -1.34839134      -1.37946979       1.33844123       0.00000000
Si       1.39088459       1.34188876       1.34036679       0.00000000
Si      -1.43660169       1.38051235      -1.25820945       0.00000000
Si      -0.03241997       2.71093295       2.59495852       0.00000000
Si      -2.58449284      -0.01145187       2.76274506       0.00000000
Si      -0.05763689       2.70511742      -2.64969118       0.00000000
Si       2.71420438      -2.67882536       0.01079482       0.00000000
Si       2.70369733       0.01485648      -2.70322766       0.00000000
Si      -2.69461324       0.01394424      -2.71375991       0.00000000
