10
Lattice="16.290000149 0.0 0.0 0.0 16.290000149 0.0 0.0 0.0 29.1751946751" Properties=species:S:1:pos:R:3:initial_magmoms:R:1 pbc="T T T"
Si      -1.43112538       1.44104599       1.12301159       0.00000000
Si      -1.35847198      -1.30906441      -1.38941030       0.00000000
Si       1.34806267       1.39079134      -1.34453885       0.00000000
Si       1.33322248      -1.31176855       1.44388038       0.00000000
H       -0.58862287       2.37548927       1.93338180       0.00000000
Si      -2.69913899      -2.64187964      -0.01636728       0.00000000
Si       0.01643661      -2.66955635      -2.70722466       0.00000000
Si       2.72140742      -2.66923055       0.09578216       0.00000000
Si       2.73145836       0.04540023      -2.67982916       0.00000000
Si      -2.72310158       2.73660600      -0.30409305       0.00000000
