10
Lattice="16.290000149 0.0 0.0 0.0 16.290000149 0.0 0.0 0.0 29.1751946751" Properties=species:S:1:pos:R:3:initial_magmoms:R:1 pbc="T T T"
Si       0.67745224      -2.05251395      -0.76494443       0.00000000
Si      -0.61659280      -0.51795684       2.18175023       0.00000000
Si      -1.82068445       0.89036254      -1.14323000       0.00000000
Si       1.76539619       1.48735846      -0.33160526       0.00000000
H        1.37865529       0.25430319      -2.90815423       0.00000000
Si       0.15050331       1.52801830       3.06374554       0.00000000
Si      -2.86778937      -1.25115346      -1.53216452       0.00000000
Si       2.13985442       2.13139991       1.89449127       0.00000000
Si      -0.69993244       2.32603283      -2.69800530       0.00000000
Si       0.78666040       3.34397865      -1.23113486       0.00000000
