10
Lattice="16.290000149 0.0 0.0 0.0 16.290000149 0.0 0.0 0.0 29.1751946751" Properties=species:S:1:pos:R:3:initial_magmoms:R:1 pbc="T T T"
Si      -1.32538699      -1.33576177      -1.33716044       0.00000000
Si       1.31620709      -1.43524350       1.27623972       0.00000000
Si      -1.44226774       1.33229721       1.28169548       0.00000000
Si       1.29885465       1.29012240      -1.47190608       0.00000000
Si       2.63037076      -0.05116852       2.63971326       0.00000000
Si      -0.07483626       2.68081600       2.62077856       0.00000000
Si      -2.74168848       0.00781594      -2.59208184       0.00000000
Si       2.66095686       2.68526317      -0.15398668       0.00000000
Si      -0.15253956       2.67483757      -2.69645318       0.00000000
Si      -0.08231337      -2.77037191       2.61018797       0.00000000
