10
Lattice="16.290000149 0.0 0.0 0.0 16.290000149 0.0 0.0 0.0 29.1751946751" Properties=species:S:1:pos:R:3:initial_magmoms:R:1 pbc="T T T"
H        1.08072748      -1.71250256      -0.79001584       0.00000000
Si      -0.25179453       0.51269517      -2.29676877       0.00000000
Si       1.94307122       0.85294441       1.05922762       0.00000000
Si      -1.74557126       1.54318429       0.45025669       0.00000000
Si      -0.83351044      -1.99770788       1.08933933       0.00000000
Si       0.71131915       2.05393966       2.65527998       0.00000000
Si      -2.17160363      -0.84331702       2.64546545       0.00000000
Si       1.98133643      -2.45646686      -1.76691806       0.00000000
Si      -2.14806458      -0.78675814      -2.93115420       0.00000000
Si      -0.70498234       3.39751737       1.40035858       0.00000000
