10
Lattice="16.290000149 0.0 0.0 0.0 16.290000149 0.0 0.0 0.0 29.1751946751" Properties=species:S:1:pos:R:3:initial_magmoms:R:1 pbc="T T T"
Si      -1.36230013      -1.35444835       1.34602678       0.00000000
Si       1.31826826      -1.36927225      -1.38135794       0.00000000
Si      -1.39215970       1.35015594      -1.32910517       0.00000000
Si       1.37821546       1.33945178       1.36525323       0.00000000
Si      -0.03779280       2.70865235       2.65190850       0.00000000
Si       2.68586264      -2.70894557      -0.02351521       0.00000000
Si      -0.04828356       2.70629030      -2.69342480       0.00000000
Si       0.00871515      -2.69946479       2.70165220       0.00000000
Si       2.69262299      -0.01133784      -2.71288465       0.00000000
Si      -2.71437014       0.00431685       2.70252746       0.00000000
