10
Lattice="16.290000149 0.0 0.0 0.0 16.290000149 0.0 0.0 0.0 29.1751946751" Properties=species:S:1:pos:R:3:initial_magmoms:R:1 pbc="T T T"
Si       1.28366830      -1.42170976       1.35851376       0.00000000
Si      -1.33621984       1.06992721       1.62103217       0.00000000
Si       1.31634604       1.32432814      -1.44592265       0.00000000
Si      -1.41172399      -1.36146934      -1.31953570       0.00000000
H       -2.52418439       1.58120515       0.82349904       0.00000000
Si       2.70276026       0.01137042       2.53380731       0.00000000
Si      -0.35464959      -2.45689040       2.79851385       0.00000000
Si      -2.03698307      -0.78494995       3.04481084       0.00000000
H       -1.89882758       3.23222925      -0.28294104       0.00000000
Si       2.60777816       2.72847728      -0.12469478       0.00000000
