10
Lattice="16.290000149 0.0 0.0 0.0 16.290000149 0.0 0.0 0.0 29.1751946751" Properties=species:S:1:pos:R:3:initial_magmoms:R:1 pbc="T T T"
H        1.18990306       0.35779356       0.90431433       0.00000000
Si       0.84991447       1.44445060      -1.66984227       0.00000000
Si       0.54131670      -2.36920133      -0.74323808       0.00000000
Si      -0.78588174      -2.14553963       1.14912339       0.00000000
Si      -2.19822149       1.38833155       1.00406432       0.00000000
H        2.60607422      -1.68441860       1.31615138       0.00000000
H       -1.75289035      -1.24817239      -2.60365272       0.00000000
Si      -3.42345756      -0.19956879      -0.41691353       0.00000000
Si      -0.26445186      -1.23870790       3.23669610       0.00000000
Si       1.27034308       3.26518392      -0.18955124       0.00000000
