10
Lattice="16.290000149 0.0 0.0 0.0 16.290000149 0.0 0.0 0.0 29.1751946751" Properties=species:S:1:pos:R:3:initial_magmoms:R:1 pbc="T T T"
Si       1.34652327      -1.36130156       1.35448759       0.00000000
Si      -1.31416367      -1.38407498      -1.36347355       0.00000000
Si      -1.38016212       1.34823046       1.34074607       0.00000000
Si       1.32458064       1.38385669      -1.36148963       0.00000000
Si      -2.63037076       0.05116852      -2.63971326       0.00000000
Si       2.68021816      -0.01146490      -2.65091654       0.00000000
Si      -0.00958015       2.71763303       2.66486228       0.00000000
Si       2.66423767      -2.73200733      -0.03395993       0.00000000
Si       2.70493009       0.00125107       2.70328601       0.00000000
Si      -0.02937576      -2.71140048       2.70287756       0.00000000
