10
Lattice="16.290000149 0.0 0.0 0.0 16.290000149 0.0 0.0 0.0 29.1751946751" Properties=species:S:1:pos:R:3:initial_magmoms:R:1 pbc="T T T"
Si       1.36230013       1.35444835      -1.34602678       0.00000000
Si      -1.35207001       1.35876520       1.35650068       0.00000000
Si       1.37101528      -1.34501644       1.35562542       0.00000000
Si      -1.37332846      -1.35944938      -1.34952780       0.00000000
Si       2.66012444      -2.71423982      -0.05598720       0.00000000
Si      -0.02985957       2.70460429      -2.67513195       0.00000000
Si      -2.68614120      -0.03241710       2.69406665       0.00000000
Si      -0.00531054      -2.67177179       2.71375991       0.00000000
Si       2.68056839      -0.01482390      -2.72738472       0.00000000
Si       0.02987586       2.70434365       2.71133837       0.00000000
