10
Lattice="16.290000149 0.0 0.0 0.0 16.290000149 0.0 0.0 0.0 29.1751946751" Properties=species:S:1:pos:R:3:initial_magmoms:R:1 pbc="T T T"
Si      -1.24985026       1.34180568       1.48831887       0.00000000
Si       1.35708733      -1.38667274       1.39833791       0.00000000
Si      -1.44604702      -1.43953265      -1.27623972       0.00000000
Si       1.52000362       1.37420649      -1.28254156       0.00000000
H       -0.65233306       1.16748639      -2.74346026       0.00000000
Si      -0.03950325      -2.61829335      -2.74932447       0.00000000
Si      -2.58619554      -0.06489122       2.83938538       0.00000000
Si      -2.88440517       2.52696835       0.27996517       0.00000000
Si       3.72288405       0.99078876      -0.47567237       0.00000000
Si       0.13755276       2.61705205       2.86489033       0.00000000
