10
Lattice="16.290000149 0.0 0.0 0.0 16.290000149 0.0 0.0 0.0 29.1751946751" Properties=species:S:1:pos:R:3:initial_magmoms:R:1 pbc="T T T"
Si       0.11637576      -2.30617206      -0.24180401       0.00000000
Si      -1.75682765      -0.32554425       1.48428803       0.00000000
Si      -0.98222185       0.85585380      -1.99170301       0.00000000
Si       1.84104695       1.18796781       1.00759452       0.00000000
H       -0.42288840       2.65427959       1.48805163       0.00000000
Si      -2.50921388       2.17041772      -0.79671622       0.00000000
Si       1.71667280      -2.23876404      -2.03406540       0.00000000
Si      -1.06800499       3.50047994       0.41297488       0.00000000
Si       0.40760838      -3.18943216       1.99998877       0.00000000
Si      -1.12409146       0.34746245       3.63126143       0.00000000
