10
Lattice="16.28999089631971 0.0 0.0 0.0 16.28999089631971 0.0 0.0 0.0 34.31052061344573" Properties=species:S:1:pos:R:3:initial_magmoms:R:1 pbc="T T T"
Si      -1.31619942       1.37497374       1.34341203       0.00000000
Si       1.40737455      -1.36764324       1.32266102       0.00000000
Si       1.17455787       1.59902640      -1.32039618       0.00000000
Si      -1.76383233      -0.77226003      -1.48334555       0.00000000
Si      -2.53477776       2.60278362      -0.26218742       0.00000000
Si      -2.65217490      -2.65154773      -0.03221760       0.00000000
Si      -2.67179620       0.01578501       2.69891853       0.00000000
Si      -0.70358139       3.38102208      -1.58775252       0.00000000
Si       0.04753422      -2.70301273       2.69775197       0.00000000
Si       0.04491153       2.72777679       2.69936456       0.00000000
