10
Lattice="16.28999089631971 0.0 0.0 0.0 16.28999089631971 0.0 0.0 0.0 34.31052061344573" Properties=species:S:1:pos:R:3:initial_magmoms:R:1 pbc="T T T"
Si       0.11499111      -0.69760296      -2.20613340       0.00000000
Si      -0.68464101       2.23365222       0.13422283       0.00000000
Si      -1.81363805      -1.26024327       0.95311248       0.00000000
Si       2.34048204      -0.47829069       0.37604352       0.00000000
Si      -1.44741700       2.06874855       2.27561224       0.00000000
Si      -0.41400546      -2.92452741      -1.68986271       0.00000000
Si       1.27966095       3.47225164       0.02556135       0.00000000
Si      -0.71252297      -2.97663912       2.09064412       0.00000000
Si       3.44813688       0.78077970      -1.38817013       0.00000000
Si       2.67305868      -2.70350469      -0.30292776       0.00000000
