10
Lattice="16.28999089631971 0.0 0.0 0.0 16.28999089631971 0.0 0.0 0.0 34.31052061344573" Properties=species:S:1:pos:R:3:initial_magmoms:R:1 pbc="T T T"
Si      -1.35053874       1.35887922       1.35742789       0.00000000
Si       1.35713619      -1.35140211       1.35962376       0.00000000
Si      -1.35547461      -1.35694071      -1.35831996       0.00000000
Si       1.35907470       1.35822762      -1.35756513       0.00000000
Si      -2.71275741      -2.71341390      -0.00044604       0.00000000
Si      -2.71485882       2.71381626       0.00061759       0.00000000
Si      -2.71379997       0.00166158      -2.71506163       0.00000000
Si       0.00205254      -2.71447600      -2.71526750       0.00000000
Si       2.71551042      -2.71507548       0.00092638       0.00000000
Si       0.00109143       2.71581993      -2.71537043       0.00000000
