10
Lattice="16.28999089631971 0.0 0.0 0.0 16.28999089631971 0.0 0.0 0.0 34.31052061344573" Properties=species:S:1:pos:R:3:initial_magmoms:R:1 pbc="T T T"
Si       1.35053874      -1.35887922      -1.35742789       0.00000000
Si       1.34298018       1.34850249       1.37605851       0.00000000
Si      -1.36432008       1.35493704      -1.35681030       0.00000000
Si      -1.37321442      -1.36282140       1.38467045       0.00000000
Si       2.70767493      -2.71028133       0.00219587       0.00000000
Si       2.70923877       2.71401174       0.00298502       0.00000000
Si       2.70961344      -0.00065160      -2.71499301       0.00000000
Si      -0.00495216       2.71490769      -2.71523319       0.00000000
Si      -0.00493587      -2.71581993      -2.71574785       0.00000000
Si      -2.72086983      -0.00035838      -2.71581647       0.00000000
