10
Lattice="16.28999089631971 0.0 0.0 0.0 16.28999089631971 0.0 0.0 0.0 34.31052061344573" Properties=species:S:1:pos:R:3:initial_magmoms:R:1 pbc="T T T"
Si       1.34656398      -1.29525048      -1.50328199       0.00000000
Si      -1.44518364      -1.36516716       1.36055014       0.00000000
Si      -1.35451350       1.42943121      -1.47854409       0.00000000
Si       1.39870827       1.46940687       1.41702529       0.00000000
Si       3.46758714      -0.84173688       1.25720680       0.00000000
Si       2.70650205      -2.66020587      -0.08581066       0.00000000
Si      -2.17696302       0.00985545       3.13361591       0.00000000
Si      -2.77219962      -2.63024856      -0.10152489       0.00000000
Si       0.00358380      -2.64375297      -2.87934050       0.00000000
Si       2.72230335       2.84799699      -0.11466582       0.00000000
