10
Lattice="16.28999089631971 0.0 0.0 0.0 16.28999089631971 0.0 0.0 0.0 34.31052061344573" Properties=species:S:1:pos:R:3:initial_magmoms:R:1 pbc="T T T"
Si      -1.33426503      -1.91808234       0.07767906       0.00000000
Si      -0.65256111       1.82488725       1.32332321       0.00000000
Si      -1.15048125       0.81754623      -1.89318696       0.00000000
Si       2.34791028      -0.19005543      -0.21866107       0.00000000
Si      -2.83884201       0.93954204       1.76270398       0.00000000
Si      -1.16211231      -2.41149015      -2.26401528       0.00000000
Si       2.80769553       0.73954971      -2.29746805       0.00000000
Si       3.17606130       1.07437437       1.58624488       0.00000000
Si      -3.13605306      -1.35646830       1.45541879       0.00000000
Si      -0.33041007       2.98253610      -2.19913405       0.00000000
