10
Lattice="16.28999089631971 0.0 0.0 0.0 16.28999089631971 0.0 0.0 0.0 34.31052061344573" Properties=species:S:1:pos:R:3:initial_magmoms:R:1 pbc="T T T"
Si       0.95557140      -0.27820062      -2.20465804       0.00000000
Si      -0.84983301      -2.20726242       0.54135170       0.00000000
Si       0.09283671       2.10598749       1.46433953       0.00000000
Si      -2.46044160      -0.86817555       2.11676306       0.00000000
Si      -0.79646697       0.40130415       3.31070774       0.00000000
Si       1.23623181      -2.62373256      -2.08872273       0.00000000
Si       2.79904554       1.06561035      -2.56886442       0.00000000
Si       0.44953884       3.87908883      -0.72947639       0.00000000
Si       2.64126060      -3.25982448      -0.18435053       0.00000000
Si       0.35398170      -3.84440742       1.85695503       0.00000000
