10
Lattice="16.28999089631971 0.0 0.0 0.0 16.28999089631971 0.0 0.0 0.0 34.31052061344573" Properties=species:S:1:pos:R:3:initial_magmoms:R:1 pbc="T T T"
Si       1.36805049       1.34656398       1.37902294       0.00000000
Si      -1.35224919      -1.36371735       1.37981208       0.00000000
Si       1.24217766      -1.36938627      -1.50206054       0.00000000
Si      -1.45073853       1.26187227      -1.45190196       0.00000000
Si      -2.38109301      -0.76450599      -2.81888674       0.00000000
Si       2.69097768      -2.70480789       0.01157295       0.00000000
Si      -2.71327869       2.68475490       0.01207388       0.00000000
Si      -2.69674434      -2.73028545       0.02390415       0.00000000
Si       2.73518874       2.69495244       0.01922763       0.00000000
Si       0.00892692       2.70635544       2.73789187       0.00000000
