10
Lattice="16.28999089631971 0.0 0.0 0.0 16.28999089631971 0.0 0.0 0.0 34.31052061344573" Properties=species:S:1:pos:R:3:initial_magmoms:R:1 pbc="T T T"
Si       2.13945692      -0.89995734       0.12701762       0.00000000
Si      -1.22586878      -2.02130230       0.25828974       0.00000000
Si      -0.38482356       1.38510612      -1.89558870       0.00000000
Si      -0.21066065       1.53298674       1.81557652       0.00000000
Si       1.96578923       1.38787542      -2.48432325       0.00000000
Si      -2.26761428       2.50903467       1.13808060       0.00000000
Si      -1.31756519       3.32346951      -0.91842453       0.00000000
Si      -3.34555616      -1.49970301      -0.60897777       0.00000000
Si       1.88640806      -2.96605991       1.22663611       0.00000000
Si      -3.73171061       0.59021928       0.69125445       0.00000000
