10
Lattice="16.28999089631971 0.0 0.0 0.0 16.28999089631971 0.0 0.0 0.0 34.31052061344573" Properties=species:S:1:pos:R:3:initial_magmoms:R:1 pbc="T T T"
Si       1.35697329       1.35703845       1.35735926       0.00000000
Si       1.35658233      -1.35796698      -1.35756513       0.00000000
Si      -1.35764118       1.35738054      -1.35780530       0.00000000
Si      -1.35936792      -1.35997065       1.35842289       0.00000000
Si      -0.00109143       2.71438641      -2.71410094       0.00000000
Si       2.71467963       2.71425609      -0.00010293       0.00000000
Si      -0.00280188      -2.71640637      -2.71324318       0.00000000
Si      -2.71567332      -0.00210141      -2.71423818       0.00000000
Si       2.71456560      -2.71555929       0.00024017       0.00000000
Si       0.00495216      -2.71490769       2.71523319       0.00000000
