10
Lattice="16.28999089631971 0.0 0.0 0.0 16.28999089631971 0.0 0.0 0.0 34.31052061344573" Properties=species:S:1:pos:R:3:initial_magmoms:R:1 pbc="T T T"
Si      -1.35697329      -1.35703845      -1.35735926       0.00000000
Si       1.35770634       1.35721764      -1.35746220       0.00000000
Si       1.35721764      -1.35793440       1.36085894       0.00000000
Si      -1.35861858       1.35716877       1.36312344       0.00000000
Si       2.71531494       2.71407690       0.00041173       0.00000000
Si      -2.71461447       0.00034209      -2.71516457       0.00000000
Si       2.71526607       0.00100998      -2.71454698       0.00000000
Si      -0.00039096      -2.71500543      -2.71492439       0.00000000
Si      -0.00024435       2.71516833      -2.71495870       0.00000000
Si       2.71541268      -2.71604799      -0.00003431       0.00000000
