10
Lattice="16.28999089631971 0.0 0.0 0.0 16.28999089631971 0.0 0.0 0.0 34.31052061344573" Properties=species:S:1:pos:R:3:initial_magmoms:R:1 pbc="T T T"
Si       0.74422494      -0.99136053       1.98537938       0.00000000
Si       0.32809689      -1.64392164      -1.63469136       0.00000000
Si      -2.36576412       0.08794971       0.17625324       0.00000000
Si       2.42883900       1.41459102      -0.48326395       0.00000000
Si      -1.12045878      -3.33339012      -0.87509032       0.00000000
Si       2.61786816      -2.23466220      -1.36545655       0.00000000
Si      -2.95788444      -2.22330807       0.18129689       0.00000000
Si      -3.14803273       1.42759044      -1.58027484       0.00000000
Si       2.14739667       2.80103292       1.46289848       0.00000000
Si       3.11065695      -1.01634939       2.00195138       0.00000000
