10
Lattice="16.28999089631971 0.0 0.0 0.0 16.28999089631971 0.0 0.0 0.0 34.31052061344573" Properties=species:S:1:pos:R:3:initial_magmoms:R:1 pbc="T T T"
Si       1.31968548       1.05474492      -1.60329721       0.00000000
Si       0.60628122      -0.65858841       2.24902157       0.00000000
Si       0.13861161       2.91892365      -0.06834660       0.00000000
Si       0.55112328      -2.16608130      -2.37137296       0.00000000
Si       2.59792920      -1.25631738      -1.53330371       0.00000000
Si       2.89621539       1.08305694       1.73933850       0.00000000
Si       2.55008547       2.54933613      -0.11445996       0.00000000
Si      -3.66331149       1.16882379       0.12513054       0.00000000
Si      -1.82255778      -2.07317943       2.73228553       0.00000000
Si      -2.89356012       1.07541693      -2.40733040       0.00000000
