10
Lattice="16.28999089631971 0.0 0.0 0.0 16.28999089631971 0.0 0.0 0.0 34.31052061344573" Properties=species:S:1:pos:R:3:initial_magmoms:R:1 pbc="T T T"
Si       1.40276448      -1.88810874       0.14201132       0.00000000
Si       0.21740634       1.91980908       1.35859444       0.00000000
Si      -0.52831728       0.75173463      -2.18506673       0.00000000
Si      -1.99327698      -0.55444644       1.19242850       0.00000000
Si      -2.23730118       2.16269298      -1.42474516       0.00000000
Si      -3.02570460       1.46619774       0.70171916       0.00000000
Si       1.48364433       1.90029366      -2.52971610       0.00000000
Si       0.43494300      -3.06564768      -1.64601384       0.00000000
Si       0.52400043      -2.88504045       2.02476788       0.00000000
Si       1.23285978       0.86890860       3.24660052       0.00000000
