10
Lattice="16.28999089631971 0.0 0.0 0.0 16.28999089631971 0.0 0.0 0.0 34.31052061344573" Properties=species:S:1:pos:R:3:initial_magmoms:R:1 pbc="T T T"
Si      -1.35262386      -1.35357912      -1.35339983       0.00000000
Si       1.35399222      -1.35391890       1.35677599       0.00000000
Si      -1.35878148       1.36011400       1.35488891       0.00000000
Si       1.36801791       1.34724490      -1.38383328       0.00000000
Si      -0.16630461       2.50899883      -2.72437695       0.00000000
Si       2.71217097      -2.71275156      -0.00298502       0.00000000
Si      -0.01229895      -2.73001896      -2.69494193       0.00000000
Si      -0.00205254      -2.71236060       2.71317455       0.00000000
Si       2.71226871       0.00263735       2.71338042       0.00000000
Si      -2.71893132      -2.70825552      -0.00583279       0.00000000
