10
Lattice="16.28999089631971 0.0 0.0 0.0 16.28999089631971 0.0 0.0 0.0 34.31052061344573" Properties=species:S:1:pos:R:3:initial_magmoms:R:1 pbc="T T T"
Si       2.21796495      -0.79272045      -0.36969607       0.00000000
Si      -1.10504844      -2.18251809       0.11174943       0.00000000
Si       0.15229521       0.57607353       2.41336906       0.00000000
Si      -0.82819989       1.38186816      -2.11050992       0.00000000
Si      -1.59366699      -0.61126614       3.52153087       0.00000000
Si       3.81243015       0.82602403       0.38887566       0.00000000
Si       2.52411921      -1.66952970      -2.52631936       0.00000000
Si       1.19811321       3.75382573      -0.21330863       0.00000000
Si      -3.51652230      -1.81293057       0.15786279       0.00000000
Si      -1.94026932      -0.21163986      -3.53556388       0.00000000
