10
Lattice="16.28999089631971 0.0 0.0 0.0 16.28999089631971 0.0 0.0 0.0 34.31052061344573" Properties=species:S:1:pos:R:3:initial_magmoms:R:1 pbc="T T T"
Si       0.15918588       2.33623035      -0.28477748       0.00000000
Si      -1.81739385      -0.47772054      -1.46046244       0.00000000
Si       2.21718303      -0.71307846      -0.62681925       0.00000000
Si      -0.38512818      -0.80881479       2.31585850       0.00000000
Si      -2.14648443       2.77806402      -0.09349622       0.00000000
Si       1.90338876      -1.01713131       2.84252529       0.00000000
Si       1.04651847       2.88557802       1.82751659       0.00000000
Si      -3.35443680      -1.49064903       0.02868361       0.00000000
Si       2.68345170      -2.37862507       1.01168058       0.00000000
Si      -2.97463545       1.51363422      -1.89840217       0.00000000
