10
Lattice="16.28999089631971 0.0 0.0 0.0 16.28999089631971 0.0 0.0 0.0 34.31052061344573" Properties=species:S:1:pos:R:3:initial_magmoms:R:1 pbc="T T T"
Si       1.72121769      -0.82394820      -1.34350467       0.00000000
Si      -1.32025563      -1.38106620       1.36652361       0.00000000
Si       1.38038202       1.34817669       1.37616487       0.00000000
Si      -1.44880002       1.33542162      -1.51363348       0.00000000
Si       1.50133527       0.54004608      -3.27021787       0.00000000
Si       0.33231600       2.50150869      -2.63687443       0.00000000
Si      -2.69097768       2.70480789      -0.01157295       0.00000000
Si      -2.68240914      -0.01813077       2.72419167       0.00000000
Si      -2.67946065      -2.72901483      -0.02058289       0.00000000
Si       0.03367143       2.69632080       2.72947549       0.00000000
