10
Lattice="16.28999089631971 0.0 0.0 0.0 16.28999089631971 0.0 0.0 0.0 34.31052061344573" Properties=species:S:1:pos:R:3:initial_magmoms:R:1 pbc="T T T"
Si      -2.31264243      -0.24425226       0.45186981       0.00000000
Si      -0.09275526       1.80331929      -1.59640080       0.00000000
Si       1.07939169       0.76212765       2.04243781       0.00000000
Si       0.80254314      -1.92821472      -1.25308953       0.00000000
Si      -3.08431602       1.97374527       0.56677581       0.00000000
Si       0.17339076       0.69165711      -3.66796826       0.00000000
Si      -2.39166522       2.40152067      -1.60871828       0.00000000
Si       3.46431285       0.81699237       1.45703138       0.00000000
Si       1.53629361      -1.15686693      -3.33340618       0.00000000
Si      -2.77242768      -1.17385740       2.53067679       0.00000000
