10
Lattice="16.28999089631971 0.0 0.0 0.0 16.28999089631971 0.0 0.0 0.0 34.31052061344573" Properties=species:S:1:pos:R:3:initial_magmoms:R:1 pbc="T T T"
Si      -1.05098193       2.06378010      -0.09802521       0.00000000
Si      -0.82815102      -1.26442980      -1.80490595       0.00000000
Si       2.30567031      -0.44183367      -0.19128126       0.00000000
Si      -1.18835550      -0.69142905       1.92729164       0.00000000
Si       2.14648443      -2.77806402       0.09349622       0.00000000
Si       0.32909058      -3.25578456      -1.36696622       0.00000000
Si      -0.17221788       3.06071181      -1.98078177       0.00000000
Si      -3.17606130      -1.07437437      -1.58624488       0.00000000
Si      -3.04087059       0.74215611       1.99653031       0.00000000
Si       3.19300290       0.10751400       1.92101281       0.00000000
