10
Lattice="16.28999089631971 0.0 0.0 0.0 16.28999089631971 0.0 0.0 0.0 34.31052061344573" Properties=species:S:1:pos:R:3:initial_magmoms:R:1 pbc="T T T"
Si      -1.35760860      -1.35685926      -1.35787392       0.00000000
Si       1.35739683       1.35861858      -1.35773668       0.00000000
Si       1.35954711      -1.35889551       1.35608977       0.00000000
Si      -1.36019871       1.36163223       1.36041290       0.00000000
Si      -0.00399105      -2.70203859       2.72116891       0.00000000
Si      -0.00004887      -2.71306692      -2.71495870       0.00000000
Si       2.71381626       2.71445157      -0.00041173       0.00000000
Si       2.71389771       0.00118917      -2.71471853       0.00000000
Si       2.71446786      -2.71480995      -0.00126949       0.00000000
Si      -2.71531494      -2.71407690      -0.00041173       0.00000000
