10
Lattice="16.28999089631971 0.0 0.0 0.0 16.28999089631971 0.0 0.0 0.0 34.31052061344573" Properties=species:S:1:pos:R:3:initial_magmoms:R:1 pbc="T T T"
Si       1.35659862      -1.35505107       1.36202550       0.00000000
Si       1.36713825       1.34838846      -1.35979531       0.00000000
Si      -1.35912357       1.35979146       1.35886893       0.00000000
Si      -1.36805049      -1.34656398      -1.37902294       0.00000000
Si      -0.01133784       2.70016524      -2.69164812       0.00000000
Si       2.70330921      -2.70319518       0.00871488       0.00000000
Si      -0.00143352      -2.71137276       2.71688009       0.00000000
Si       2.71251306       0.00288333       2.71712027       0.00000000
Si       2.71313208       2.71743264       0.00030879       0.00000000
Si      -2.72029968      -2.71028133       0.00078914       0.00000000
