10
Lattice="16.28999089631971 0.0 0.0 0.0 16.28999089631971 0.0 0.0 0.0 34.31052061344573" Properties=species:S:1:pos:R:3:initial_magmoms:R:1 pbc="T T T"
Si       1.30872231       1.32315525      -1.41623070       0.00000000
Si      -1.34032491       1.37643984       1.34154211       0.00000000
Si       1.37847609      -1.35177678       1.33185281       0.00000000
Si      -1.70056197      -1.11048930      -1.46512322       0.00000000
Si       2.42747064      -0.46356453      -2.67796649       0.00000000
Si      -2.70469386       2.62451026      -0.10162439       0.00000000
Si       0.01133784      -2.70016524       2.69164812       0.00000000
Si      -2.70663237       0.02176344       2.68910914       0.00000000
Si       2.72446992       0.01726740       2.69195692       0.00000000
Si       0.01229895       2.73001896       2.69494193       0.00000000
