10
Lattice="16.28999089631971 0.0 0.0 0.0 16.28999089631971 0.0 0.0 0.0 34.31052061344573" Properties=species:S:1:pos:R:3:initial_magmoms:R:1 pbc="T T T"
Si      -1.34012943      -1.36365219      -1.37657317       0.00000000
Si       1.37306781       1.35487188      -1.37091193       0.00000000
Si       1.38236940      -1.40216175       1.32061268       0.00000000
Si      -1.43035974       1.29801978       1.47655408       0.00000000
Si       0.25624170       2.55078594       2.54000926       0.00000000
Si      -2.70366759      -2.70679527      -0.01149403       0.00000000
Si      -2.71909422       2.70707220       0.01694941       0.00000000
Si      -2.69967654      -0.00475668      -2.73266294       0.00000000
Si       2.73142575       2.70625770      -0.01770424       0.00000000
Si       0.01413972       2.70969489      -2.73307467       0.00000000
