10
Lattice="16.28999089631971 0.0 0.0 0.0 16.28999089631971 0.0 0.0 0.0 34.31052061344573" Properties=species:S:1:pos:R:3:initial_magmoms:R:1 pbc="T T T"
Si      -0.55941489       0.79335558       2.11119613       0.00000000
Si       2.33512263      -0.26917596       0.05362737       0.00000000
Si      -0.34612992       1.46627919      -1.85379846       0.00000000
Si      -2.28993417      -1.74164535       0.50968307       0.00000000
Si      -0.83474847       3.03753114       1.55598298       0.00000000
Si       0.90575658      -0.18759564      -3.41702097       0.00000000
Si      -2.89621539      -1.08305694      -1.73933850       0.00000000
Si      -2.57137650      -0.35520345       2.45584551       0.00000000
Si       2.97163809       1.25390646       1.74908270       0.00000000
Si       1.41367878       0.55899135       3.36342790       0.00000000
