10
Lattice="16.28999089631971 0.0 0.0 0.0 16.28999089631971 0.0 0.0 0.0 34.31052061344573" Properties=species:S:1:pos:R:3:initial_magmoms:R:1 pbc="T T T"
Si       1.11891123       1.83435174      -0.96731705       0.00000000
Si       0.55214955       0.50859009       2.23931169       0.00000000
Si      -2.38521438      -0.01223379       0.08382065       0.00000000
Si       1.16564724      -1.97692182      -0.81209617       0.00000000
Si      -2.64964995      -2.30446485       0.65670373       0.00000000
Si       3.18011751      -0.87029325      -1.55529677       0.00000000
Si       0.74489283      -1.51179345       3.34850282       0.00000000
Si       1.35755973       3.51044613       0.61288917       0.00000000
Si       3.42487476       1.43068554      -0.96532704       0.00000000
Si       0.05178591       2.55699243      -2.89227557       0.00000000
