10
Lattice="16.28999089631971 0.0 0.0 0.0 16.28999089631971 0.0 0.0 0.0 34.31052061344573" Properties=species:S:1:pos:R:3:initial_magmoms:R:1 pbc="T T T"
Si       1.23460281      -1.32309891       1.50293545       0.00000000
Si       1.50016239       1.18206593      -1.44579952       0.00000000
Si      -1.54720791      -1.37452644      -1.24779340       0.00000000
Si      -1.47561336       1.37958218       1.47954596       0.00000000
Si       2.75630058      -2.49482232       0.13951009       0.00000000
Si       2.58178581       2.68481843       0.03964240       0.00000000
Si       2.58229080       0.03713957       2.86516338       0.00000000
Si      -0.13146030      -2.68041429       2.86039422       0.00000000
Si      -2.85593022      -2.69768169       0.16843730       0.00000000
Si      -3.00993588       2.54133611       0.13900229       0.00000000
