10
Lattice="16.28999089631971 0.0 0.0 0.0 16.28999089631971 0.0 0.0 0.0 34.31052061344573" Properties=species:S:1:pos:R:3:initial_magmoms:R:1 pbc="T T T"
Si       1.61622864       1.65827313       0.41580943       0.00000000
Si      -0.50632578      -1.75523121       1.54020013       0.00000000
Si       1.22543154      -1.58954725      -1.32291148       0.00000000
Si      -1.88525799       1.06476327      -1.09556985       0.00000000
Si       2.14261036       0.07380999      -2.63717671       0.00000000
Si      -3.12064272       1.17257049       0.93801585       0.00000000
Si      -0.67652370       2.65839768      -2.44846874       0.00000000
Si      -0.53937819      -2.67031724      -2.56406095       0.00000000
Si       3.38207346       1.31976693      -1.10548559       0.00000000
Si       1.20927186      -3.42043478       1.25082504       0.00000000
