10
Lattice="16.28999089631971 0.0 0.0 0.0 16.28999089631971 0.0 0.0 0.0 34.31052061344573" Properties=species:S:1:pos:R:3:initial_magmoms:R:1 pbc="T T T"
Si       2.11968738      -0.52159928       0.86726751       0.00000000
Si      -1.69697817      -1.41577807       0.83443233       0.00000000
Si       0.00679293      -0.53244191      -2.31870628       0.00000000
Si      -0.38615445       2.08992229       1.30023222       0.00000000
Si      -0.45600597       0.77077438       3.33048979       0.00000000
Si       1.38652335      -0.72020696       3.15591776       0.00000000
Si       2.79460881      -2.32939899      -0.53864116       0.00000000
Si       3.34555616       1.49970301       0.60897777       0.00000000
Si      -3.65334201      -0.78239241      -0.29421288       0.00000000
Si       1.72239057      -2.19764547      -2.60808137       0.00000000
