10
Lattice="16.28999089631971 0.0 0.0 0.0 16.28999089631971 0.0 0.0 0.0 34.31052061344573" Properties=species:S:1:pos:R:3:initial_magmoms:R:1 pbc="T T T"
Si      -1.34671059       1.34814411       1.35331062       0.00000000
Si       1.36146933       1.36195803      -1.34764595       0.00000000
Si       1.36805049      -1.36647036       1.34799249       0.00000000
Si      -1.38038202      -1.34817669      -1.37616487       0.00000000
Si       2.30576805      -0.39196998      -2.54467206       0.00000000
Si       0.34083567      -2.17212489      -2.71966954       0.00000000
Si      -2.70330921       2.70319518      -0.00871488       0.00000000
Si      -2.70474273      -0.00817758       2.70816522       0.00000000
Si       0.00920385       2.70607851       2.70840539       0.00000000
Si      -2.70063765      -2.72924289      -0.00964126       0.00000000
