10
Lattice="16.28999089631971 0.0 0.0 0.0 16.28999089631971 0.0 0.0 0.0 34.31052061344573" Properties=species:S:1:pos:R:3:initial_magmoms:R:1 pbc="T T T"
Si      -1.90703772      -0.87563637      -1.13828647       0.00000000
Si      -1.01776662       0.35121240       2.13164522       0.00000000
Si       0.95573430       1.92886632      -1.15235379       0.00000000
Si       1.84202433      -1.68932187       0.30299638       0.00000000
Si       1.15261524       0.58437117       3.00121154       0.00000000
Si      -0.41591628      -2.12913558      -2.48030892       0.00000000
Si       2.30971023       0.60235533      -2.50151283       0.00000000
Si       0.94771962      -3.49899426      -1.00643106       0.00000000
Si       3.58070490      -0.77471982      -1.06774400       0.00000000
Si       2.70852201       2.80453527       0.14818722       0.00000000
