10
Lattice="16.28999089631971 0.0 0.0 0.0 16.28999089631971 0.0 0.0 0.0 34.31052061344573" Properties=species:S:1:pos:R:3:initial_magmoms:R:1 pbc="T T T"
Si       1.03091265      -0.13077612      -2.14667323       0.00000000
Si       1.09965645       0.00566892       2.13315488       0.00000000
Si      -2.10538476       1.26197001       0.07105713       0.00000000
Si      -0.52499412      -2.35094022       0.70635108       0.00000000
Si      -0.22278204      -1.77922638       2.96110252       0.00000000
Si      -0.72187506      -1.00644507      -3.44721424       0.00000000
Si      -2.79591786       0.69805908       2.31767696       0.00000000
Si      -2.69537598      -2.58409899      -0.16321524       0.00000000
Si       3.29214451      -0.76141089       1.67672177       0.00000000
Si       2.77356702      -1.87292646      -2.07537593       0.00000000
