10
Lattice="16.28999089631971 0.0 0.0 0.0 16.28999089631971 0.0 0.0 0.0 34.31052061344573" Properties=species:S:1:pos:R:3:initial_magmoms:R:1 pbc="T T T"
Si      -0.89015076       0.50238360      -2.13607128       0.00000000
Si      -1.07561241       1.84852404       1.06369535       0.00000000
Si       2.25409358       0.93856464       0.20733859       0.00000000
Si      -0.85789656      -2.08049364       1.05202977       0.00000000
Si      -3.15117018       0.91237032      -1.66042426       0.00000000
Si       0.43228773       2.28727890      -2.96401891       0.00000000
Si      -3.36466692       1.64037042       0.58719058       0.00000000
Si       3.40704440       0.18055836      -1.66392394       0.00000000
Si       3.18646151      -0.09858708       2.07925302       0.00000000
Si       2.81492407      -2.13069942      -1.65888029       0.00000000
