10
Lattice="16.28999089631971 0.0 0.0 0.0 16.28999089631971 0.0 0.0 0.0 34.31052061344573" Properties=species:S:1:pos:R:3:initial_magmoms:R:1 pbc="T T T"
Si      -2.24865531       0.45519147       0.46871628       0.00000000
Si       0.41098041       2.34916461      -0.32687651       0.00000000
Si       0.03987792      -1.35692442      -2.01643042       0.00000000
Si       1.26126630      -1.45010322       1.57059927       0.00000000
Si      -1.92163356       1.04246226       2.72775653       0.00000000
Si       2.51997733       2.27126583      -1.23631168       0.00000000
Si       0.27580599      -3.51277560       0.88833419       0.00000000
Si       0.35277624       1.03741236       3.51127202       0.00000000
Si       2.29250703      -1.17309177      -2.66620343       0.00000000
Si      -3.26484180      -1.61888391       0.70909593       0.00000000
