10
Lattice="16.28999089631971 0.0 0.0 0.0 16.28999089631971 0.0 0.0 0.0 34.31052061344573" Properties=species:S:1:pos:R:3:initial_magmoms:R:1 pbc="T T T"
Si      -1.01618649      -2.07407538       0.24037964       0.00000000
Si       2.24865531      -0.45519147      -0.46871628       0.00000000
Si       0.32702175       0.58727079       2.25904025       0.00000000
Si      -1.00045035       1.67145174      -1.45274257       0.00000000
Si       2.65963572       1.89397314      -0.79559280       0.00000000
Si      -2.45460978      -1.32655986       1.96619979       0.00000000
Si       1.01401992       2.77808031      -2.19594317       0.00000000
Si      -1.42120476       2.13658011       2.70785642       0.00000000
Si      -1.90351908      -2.62342305      -1.87191443       0.00000000
Si       2.28853323      -1.81211589      -2.48514671       0.00000000
