10
Lattice="16.28999089631971 0.0 0.0 0.0 16.28999089631971 0.0 0.0 0.0 34.31052061344573" Properties=species:S:1:pos:R:3:initial_magmoms:R:1 pbc="T T T"
Si       1.21573899      -1.41030675       1.40055967       0.00000000
Si      -1.19379636      -1.61893278      -1.26483369       0.00000000
Si      -1.48190130       1.27931886       1.37969543       0.00000000
Si       1.46800593       1.42061832      -1.44891492       0.00000000
Si      -1.31230611      -0.14576292      -3.10168793       0.00000000
Si      -0.43290675       2.16753111      -2.63012387       0.00000000
Si       2.58245370      -0.06861348       2.73901039       0.00000000
Si      -0.13590747       2.64836304       2.73979953       0.00000000
Si       2.16003771      -3.16423476       0.20353355       0.00000000
Si      -2.86037739       2.63109564       0.04784262       0.00000000
