10
Lattice="16.28999089631971 0.0 0.0 0.0 16.28999089631971 0.0 0.0 0.0 34.31052061344573" Properties=species:S:1:pos:R:3:initial_magmoms:R:1 pbc="T T T"
Si       1.32701598       1.26508140       1.46207503       0.00000000
Si      -1.30696788       1.34501643      -1.41136405       0.00000000
Si      -1.31424299      -1.39137777       1.40690368       0.00000000
Si       1.40256900      -1.37632581      -1.39314516       0.00000000
Si       1.13135679      -1.00292643       2.42397101       0.00000000
Si      -2.55370609      -2.63733471      -0.12478743       0.00000000
Si       2.77219962       2.63024856       0.10152489       0.00000000
Si      -2.73985487       2.67152742       0.00260760       0.00000000
Si      -2.66138594      -0.01327635      -2.77575698       0.00000000
Si       0.05297508       2.70650205      -2.77390421       0.00000000
