10
Lattice="16.28999089631971 0.0 0.0 0.0 16.28999089631971 0.0 0.0 0.0 34.31052061344573" Properties=species:S:1:pos:R:3:initial_magmoms:R:1 pbc="T T T"
Si       0.89145396      -2.16593469       0.10732337       0.00000000
Si      -0.22297752       0.76385439      -2.26549063       0.00000000
Si      -1.52594946       0.51280920       1.84539238       0.00000000
Si       1.99047414       1.33110477       0.85855264       0.00000000
Si       3.28216526      -1.57747473      -0.40942767       0.00000000
Si      -3.42686214       1.25972199       0.66418343       0.00000000
Si       1.30483456       2.53627155      -2.37555884       0.00000000
Si      -0.24210198       1.92614589       3.31322270       0.00000000
Si       1.08221297       3.31089267       1.72815327       0.00000000
Si       0.93861351      -0.79272027      -3.69805860       0.00000000
