10
Lattice="16.28999089631971 0.0 0.0 0.0 16.28999089631971 0.0 0.0 0.0 34.31052061344573" Properties=species:S:1:pos:R:3:initial_magmoms:R:1 pbc="T T T"
Si      -0.57485781      -1.90552275      -1.25116814       0.00000000
Si       1.44855567       1.68946848      -0.75960104       0.00000000
Si       1.47051459      -1.22461704       1.40158555       0.00000000
Si      -1.83742566       1.11008205       1.05638721       0.00000000
Si      -0.08153145       1.78093683      -2.51197755       0.00000000
Si       1.04461254       0.17703972       3.16641679       0.00000000
Si      -1.35260757       0.13155804       3.16305435       0.00000000
Si      -2.92547060      -1.90829205      -0.66243359       0.00000000
Si       1.12045878       3.33339012       0.87509032       0.00000000
Si      -1.24530534       3.42133983       1.05134356       0.00000000
