10
Lattice="16.28999089631971 0.0 0.0 0.0 16.28999089631971 0.0 0.0 0.0 34.31052061344573" Properties=species:S:1:pos:R:3:initial_magmoms:R:1 pbc="T T T"
Si       2.22957386       0.49847400      -0.49921835       0.00000000
Si      -0.98546031      -2.06267238      -0.68226508       0.00000000
Si       0.43579236       0.49436892       2.38207785       0.00000000
Si      -1.26126630       1.45010322      -1.57059927       0.00000000
Si      -0.90849006       2.48751558       1.94067275       0.00000000
Si      -3.11368365      -1.78311969       0.27867020       0.00000000
Si       2.55597659      -0.41112702      -2.60605705       0.00000000
Si      -0.66368394      -1.23755130       3.46639383       0.00000000
Si       2.29981634       2.85842259      -0.86016523       0.00000000
Si      -1.22138838       0.09317880      -3.58702969       0.00000000
