10
Lattice="16.28999089631971 0.0 0.0 0.0 16.28999089631971 0.0 0.0 0.0 34.31052061344573" Properties=species:S:1:pos:R:3:initial_magmoms:R:1 pbc="T T T"
Si      -0.06737912       0.97195914      -2.08810518       0.00000000
Si      -1.79275076      -0.93415005       1.30241231       0.00000000
Si       1.18386785       1.94049738       1.03594293       0.00000000
Si       0.00170677      -1.93624569       2.46769088       0.00000000
Si       2.69529803       0.79174287       2.45571993       0.00000000
Si      -2.73704948       0.81977796       2.49943842       0.00000000
Si       1.47733872      -3.39177348       0.87860166       0.00000000
Si       2.32333217       1.56041910      -2.60485622       0.00000000
Si      -0.78778808      -0.55296405      -3.78887864       0.00000000
Si      -0.95883308       3.13789383      -2.19542855       0.00000000
