10
Lattice="16.28999089631971 0.0 0.0 0.0 16.28999089631971 0.0 0.0 0.0 34.31052061344573" Properties=species:S:1:pos:R:3:initial_magmoms:R:1 pbc="T T T"
Si       1.79256789      -1.59539373       0.36664243       0.00000000
Si      -2.39071130      -0.58845996       0.51675104       0.00000000
Si       0.38796264       1.47602061       2.10182936       0.00000000
Si      -1.24243667      -0.93164139      -2.15109929       0.00000000
Si      -1.29169111       2.90857950       1.26798031       0.00000000
Si      -3.28216526       1.57747473       0.40942767       0.00000000
Si       3.52748547      -0.73577043      -1.17407236       0.00000000
Si      -2.32333217      -1.56041910       2.60485622       0.00000000
Si      -1.13946432       0.38007828       3.64079915       0.00000000
Si       0.66974706      -3.79991943      -0.22490559       0.00000000
