10
Lattice="16.28999089631971 0.0 0.0 0.0 16.28999089631971 0.0 0.0 0.0 34.31052061344573" Properties=species:S:1:pos:R:3:initial_magmoms:R:1 pbc="T T T"
Si       1.35438644      -1.35729909       1.35677599       0.00000000
Si       1.35590141       1.35670422      -1.35694754       0.00000000
Si      -1.35659305       1.35372469       1.36041290       0.00000000
Si      -1.35930978      -1.35786924      -1.35670736       0.00000000
Si       2.71209278      -2.71401174       0.00085776       0.00000000
Si       2.71333082      -0.00112401      -2.71406663       0.00000000
Si       2.71344485       2.71513805       0.00065190       0.00000000
Si      -0.00272532       2.71486275      -2.71379214       0.00000000
Si       2.72628137      -0.01110978       2.70267553       0.00000000
Si      -0.00186358      -2.71531494      -2.71403232       0.00000000
