10
Lattice="10.86 0.0 0.0 0.0 10.86 0.0 0.0 0.0 10.86" Properties=species:S:1:pos:R:3:initial_magmoms:R:1 pbc="T T T"
Si       1.47831750      -1.47568938      -1.19481720       0.00000000
Si      -1.23668250      -1.47568938       1.52018280       0.00000000
Si       1.47831750       1.23931062       1.52018280       0.00000000
Si      -0.00670062       2.46129954      -2.40050526       0.00000000
Si      -2.53342080       2.40598956       0.15161646       0.00000000
Si      -2.51856432      -0.12420582      -2.50773690       0.00000000
Si       0.12081750      -2.83318938      -2.55231720       0.00000000
Si       2.83581750      -0.11818938      -2.55231720       0.00000000
Si      -2.59418250      -2.83318938       0.16268280       0.00000000
Si       2.83581750       2.59681062       0.16268280       0.00000000
