10
Lattice="10.86 0.0 0.0 0.0 10.86 0.0 0.0 0.0 10.86" Properties=species:S:1:pos:R:3:initial_magmoms:R:1 pbc="T T T"
Si       1.11108660      -1.09607808      -1.59703902       0.00000000
Si      -1.60391340      -1.09607808       1.11796098       0.00000000
Si       1.11108660       1.61892192       1.11796098       0.00000000
Si       2.46858660      -2.45357808      -0.23953902       0.00000000
Si      -0.24641340      -2.45357808       2.47546098       0.00000000
Si       2.46858660       0.26142192       2.47546098       0.00000000
Si      -0.05019492      -2.50884462      -2.79264900       0.00000000
Si      -2.97126342      -2.31257184      -0.46542702       0.00000000
Si       2.46858660       0.26142192      -2.95453902       0.00000000
Si      -2.96141340       0.26142192       2.47546098       0.00000000
