10
Lattice="10.86 0.0 0.0 0.0 10.86 0.0 0.0 0.0 10.86" Properties=species:S:1:pos:R:3:initial_magmoms:R:1 pbc="T T T"
Si      -1.49583468      -1.15614474       1.20678492       0.00000000
Si       1.21916532      -1.15614474      -1.50821508       0.00000000
Si       1.21916532       1.55885526       1.20678492       0.00000000
Si      -0.13833468      -2.51364474       2.56428492       0.00000000
Si       2.57666532      -2.51364474      -0.15071508       0.00000000
Si       2.57666532       0.20135526       2.56428492       0.00000000
Si       0.11762466      -2.77063578      -2.41621968       0.00000000
Si      -2.67932490      -2.52210468      -0.28222968       0.00000000
Si      -2.85333468       0.20135526       2.56428492       0.00000000
Si       2.57666532       0.20135526      -2.86571508       0.00000000
