10
Lattice="10.86 0.0 0.0 0.0 10.86 0.0 0.0 0.0 10.86" Properties=species:S:1:pos:R:3:initial_magmoms:R:1 pbc="T T T"
Si      -1.30109316      -1.37135736      -1.37721090       0.00000000
Si       1.41390684      -1.37135736       1.33778910       0.00000000
Si       1.41390684       1.34364264      -1.37721090       0.00000000
Si      -2.59291188       2.70735456       0.00890520       0.00000000
Si      -0.00472410       2.73602496       2.62408008       0.00000000
Si      -2.65859316      -2.72885736      -0.01971090       0.00000000
Si      -2.65859316      -0.01385736      -2.73471090       0.00000000
Si      -2.66801964      -0.12720318       2.73991284       0.00000000
Si       0.05640684      -2.72885736       2.69528910       0.00000000
Si       0.05640684       2.70114264      -2.73471090       0.00000000
