10
Lattice="10.86 0.0 0.0 0.0 10.86 0.0 0.0 0.0 10.86" Properties=species:S:1:pos:R:3:initial_magmoms:R:1 pbc="T T T"
Si       1.29181872       1.35128808      -1.38611610       0.00000000
Si      -1.42318128       1.35128808       1.32888390       0.00000000
Si      -1.42318128      -1.36371192      -1.38611610       0.00000000
Si       2.58818778       0.02867040       2.61517488       0.00000000
Si       2.59291188      -2.70735456      -0.00890520       0.00000000
Si       2.64931872       2.70878808      -0.02861610       0.00000000
Si       2.64931872      -0.00621192      -2.74361610       0.00000000
Si      -0.06568128       2.70878808       2.68638390       0.00000000
Si      -0.06568128       2.70878808      -2.74361610       0.00000000
Si      -0.06568128      -2.72121192      -2.74361610       0.00000000
