10
Lattice="10.86 0.0 0.0 0.0 10.86 0.0 0.0 0.0 10.86" Properties=species:S:1:pos:R:3:initial_magmoms:R:1 pbc="T T T"
Si       1.41863094       1.32261768      -1.28629098       0.00000000
Si      -1.29636906       1.32261768       1.42870902       0.00000000
Si       1.41863094      -1.39238232       1.42870902       0.00000000
Si      -2.58818778      -0.02867040      -2.61517488       0.00000000
Si       0.06113094       2.68011768      -2.64379098       0.00000000
Si      -2.65386906       2.68011768       0.07120902       0.00000000
Si       0.00472410      -2.73602496      -2.62408008       0.00000000
Si       2.77613094      -0.03488232      -2.64379098       0.00000000
Si      -2.65386906      -0.03488232       2.78620902       0.00000000
Si       2.77613094       2.68011768       0.07120902       0.00000000
