10
Lattice="16.28999089631971 0.0 0.0 0.0 16.28999089631971 0.0 0.0 0.0 34.450931932916035" Properties=species:S:1:pos:R:3:initial_magmoms:R:1 pbc="T T T"
Si       1.33644789       1.34884784      -1.38599622       0.00000000
Si      -1.37665161      -1.36680503      -1.38368800       0.00000000
Si      -1.30948794       1.49027762       1.37052774       0.00000000
Si       1.49444460      -1.23723267       1.48414698       0.00000000
Si      -0.23664483      -2.25985047       2.76334525       0.00000000
Si       2.70208746       2.69837660      -0.00554660       0.00000000
Si       2.69192250      -2.72605398      -0.00571886       0.00000000
Si       2.69695611      -0.00782083      -2.74353595       0.00000000
Si      -0.01676241       2.70717320      -2.74553410       0.00000000
Si      -2.73571002       2.72349578      -0.01636420       0.00000000
