10
Lattice="16.28999089631971 0.0 0.0 0.0 16.28999089631971 0.0 0.0 0.0 34.450931932916035" Properties=species:S:1:pos:R:3:initial_magmoms:R:1 pbc="T T T"
Si       0.07242534       2.31404826      -0.41792449       0.00000000
Si      -2.08259505      -0.60107494       0.93589454       0.00000000
Si       1.65669300      -0.86994627       1.45410575       0.00000000
Si       0.75064320      -0.46377793      -2.24382490       0.00000000
Si       2.14329159       1.55465733      -1.81808005       0.00000000
Si      -2.79553667       1.61455566       1.44652654       0.00000000
Si      -2.25885285       2.79393537      -0.78579175       0.00000000
Si       0.75116448       3.24197553       1.62725623       0.00000000
Si       0.60737265      -2.73533765       2.45177084       0.00000000
Si      -1.53539766      -1.85453735       2.90610999       0.00000000
