10
Lattice="16.28999089631971 0.0 0.0 0.0 16.28999089631971 0.0 0.0 0.0 34.450931932916035" Properties=species:S:1:pos:R:3:initial_magmoms:R:1 pbc="T T T"
Si      -2.31181164       0.10220346      -0.35219207       0.00000000
Si       0.97306686      -0.41275113      -2.12310877       0.00000000
Si      -0.12584025      -1.57370360       1.77577428       0.00000000
Si       0.54323892       2.00599947       1.28863783       0.00000000
Si      -2.00500578      -0.52467809       2.88785098       0.00000000
Si      -2.92863249       1.25128377       1.61667979       0.00000000
Si       3.04199460      -1.30171761      -1.50261269       0.00000000
Si       1.99420551       0.98657127       2.93783931       0.00000000
Si       1.12839201       1.69277535      -3.10537429       0.00000000
Si      -2.83240746       1.40159160      -2.28940351       0.00000000
