10
Lattice="16.28999089631971 0.0 0.0 0.0 16.28999089631971 0.0 0.0 0.0 34.450931932916035" Properties=species:S:1:pos:R:3:initial_magmoms:R:1 pbc="T T T"
Si       1.08227502       1.88644716      -1.02229753       0.00000000
Si       1.45096659      -1.01942820       1.64920148       0.00000000
Si      -0.54323892      -2.00599947      -1.28863783       0.00000000
Si      -2.07493875       1.11752658       0.68684861       0.00000000
Si      -3.47187141      -0.75471570       0.32804196       0.00000000
Si      -0.66907917      -3.57970306       0.48713645       0.00000000
Si      -2.55342492       2.53547334      -1.21198446       0.00000000
Si      -2.85505056      -1.90379601      -1.64082990       0.00000000
Si       1.20067074       0.31706856       3.61741878       0.00000000
Si       1.82030976       1.29889944      -3.19739278       0.00000000
