10
Lattice="16.28999089631971 0.0 0.0 0.0 16.28999089631971 0.0 0.0 0.0 34.450931932916035" Properties=species:S:1:pos:R:3:initial_magmoms:R:1 pbc="T T T"
Si       0.43000713       0.69332846       2.17668000       0.00000000
Si      -1.62215820      -1.61596541       0.57026659       0.00000000
Si      -0.92362671       1.77596186      -1.27117120       0.00000000
Si       1.87916553      -1.04902550      -1.11207670       0.00000000
Si      -0.30680586       0.62688155      -3.24004306       0.00000000
Si       2.16160155      -0.90846561       2.51309354       0.00000000
Si      -1.19096190      -3.03666518      -1.32825642       0.00000000
Si       2.00500578       0.52467809      -2.88785098       0.00000000
Si      -3.56111129      -0.22284394       0.02487359       0.00000000
Si       3.48229701      -0.74744059       0.61570740       0.00000000
