10
Lattice="16.28999089631971 0.0 0.0 0.0 16.28999089631971 0.0 0.0 0.0 34.450931932916035" Properties=species:S:1:pos:R:3:initial_magmoms:R:1 pbc="T T T"
Si      -1.52368515       0.07355261      -1.79682381       0.00000000
Si       2.19149370       0.93937099      -0.22400008       0.00000000
Si       0.02352276      -2.30437267       0.90578441       0.00000000
Si      -1.06899867       1.50466006       1.70969735       0.00000000
Si       3.24091179      -0.10249831       1.57489078       0.00000000
Si      -0.20298969       0.23457763      -3.69420995       0.00000000
Si       1.70668701       3.23120458      -0.67303378       0.00000000
Si      -2.23216983      -2.11858522      -2.19597253       0.00000000
Si       2.02950594      -3.22760842      -0.09239745       0.00000000
Si      -1.62181611      -3.48743392      -0.37241478       0.00000000
