10
Lattice="16.28999089631971 0.0 0.0 0.0 16.28999089631971 0.0 0.0 0.0 34.450931932916035" Properties=species:S:1:pos:R:3:initial_magmoms:R:1 pbc="T T T"
Si       1.35252612       1.38041460      -1.32827709       0.00000000
Si       1.35651717      -1.35721764       1.36250067       0.00000000
Si      -1.35692442       1.36047564       1.36108818       0.00000000
Si      -1.36484136      -1.36964691      -1.34668424       0.00000000
Si      -0.02950119       2.64059271      -2.70429632       0.00000000
Si       0.02971296      -2.62946664      -2.76810637       0.00000000
Si       2.75724540       0.11393226      -2.66325834       0.00000000
Si      -2.71310765      -2.71515204       0.00658013       0.00000000
Si       2.71539639      -2.71406061       0.00561551       0.00000000
Si       2.71292031       2.71728603       0.00740695       0.00000000
