10
Lattice="16.28999089631971 0.0 0.0 0.0 16.28999089631971 0.0 0.0 0.0 34.450931932916035" Properties=species:S:1:pos:R:3:initial_magmoms:R:1 pbc="T T T"
Si      -0.81417420       2.17629513       0.63772156       0.00000000
Si      -0.53978544      -0.75297267       2.28458038       0.00000000
Si       2.41052904      -0.38525850       0.39043263       0.00000000
Si      -0.56808117      -1.01649600      -2.29977325       0.00000000
Si      -2.84799699      -0.18898029       2.29984215       0.00000000
Si       1.03645125       2.54808180      -2.45525039       0.00000000
Si       1.01700099       0.66145545       3.53332400       0.00000000
Si       2.92104135      -2.51856432      -0.54811463       0.00000000
Si       0.10629225       0.74875356      -3.87514634       0.00000000
Si       1.23554763      -2.85985611      -2.47602431       0.00000000
