10
Lattice="16.28999089631971 0.0 0.0 0.0 16.28999089631971 0.0 0.0 0.0 34.450931932916035" Properties=species:S:1:pos:R:3:initial_magmoms:R:1 pbc="T T T"
Si       0.71294162      -2.21563059      -0.51063200       0.00000000
Si      -2.07780320       0.32172750       1.13205826       0.00000000
Si       1.78299914       0.66647277       1.48662745       0.00000000
Si       0.53668382       1.17937971      -2.23231828       0.00000000
Si       2.86796201       0.69949260      -1.86445103       0.00000000
Si       2.79553667      -1.61455566      -1.44652654       0.00000000
Si       0.98830778       2.47987557       2.71990260       0.00000000
Si      -1.75641779      -0.11538207       3.44109881       0.00000000
Si      -2.57072231       2.64298734       1.25422133       0.00000000
Si       3.54670115       1.62741987       0.18072969       0.00000000
