10
Lattice="16.28999089631971 0.0 0.0 0.0 16.28999089631971 0.0 0.0 0.0 34.450931932916035" Properties=species:S:1:pos:R:3:initial_magmoms:R:1 pbc="T T T"
Si       1.64305827      -0.59855976       1.61867794       0.00000000
Si       0.25029585      -1.33649676      -1.96821729       0.00000000
Si      -2.31638913      -0.09080046       0.64244134       0.00000000
Si       0.29918214       2.27255274      -0.78255336       0.00000000
Si       3.52184913       0.30253788       0.48751541       0.00000000
Si      -3.30211332       1.61406207      -0.64833245       0.00000000
Si      -1.74320919       3.29253480      -0.29865530       0.00000000
Si       1.38681657       0.95794974       3.42738733       0.00000000
Si      -1.20067074      -0.31706856      -3.61741878       0.00000000
Si      -0.26661843      -3.59518671      -1.40249822       0.00000000
