10
Lattice="16.28999089631971 0.0 0.0 0.0 16.28999089631971 0.0 0.0 0.0 34.450931932916035" Properties=species:S:1:pos:R:3:initial_magmoms:R:1 pbc="T T T"
Si      -1.36039419      -1.33687143      -1.33568405       0.00000000
Si      -1.35381303       1.35796698       1.35454250       0.00000000
Si       1.35852084      -1.35669636       1.35392238       0.00000000
Si       1.34394129       1.37101527      -1.36815062       0.00000000
Si       0.04432509      -2.60335377      -2.67066530       0.00000000
Si       2.73439053       0.00856854      -2.67902654       0.00000000
Si      -2.71171485       2.71366965      -0.00530545       0.00000000
Si      -2.71347417       0.00030951       2.71197888       0.00000000
Si       0.00141723       2.71440270       2.71211668       0.00000000
Si       0.00114030      -2.71511946       2.71146211       0.00000000
