10
Lattice="16.28999089631971 0.0 0.0 0.0 16.28999089631971 0.0 0.0 0.0 34.450931932916035" Properties=species:S:1:pos:R:3:initial_magmoms:R:1 pbc="T T T"
Si      -1.35637056      -1.35711990      -1.35829765       0.00000000
Si      -1.35798327       1.35705474       1.35722967       0.00000000
Si       1.35721764      -1.35803214       1.35709187       0.00000000
Si       1.35966114       1.35765747      -1.35743638       0.00000000
Si       2.71347417      -0.00030951      -2.71197888       0.00000000
Si       2.71489140       2.71409319       0.00013780       0.00000000
Si      -2.71535729      -0.00063531       2.71373588       0.00000000
Si       0.00096111      -2.71487511       2.71435599       0.00000000
Si      -0.00039096       2.71547784       2.71383923       0.00000000
Si      -2.71509177       2.71446786      -0.00048231       0.00000000
