10
Lattice="16.28999089631971 0.0 0.0 0.0 16.28999089631971 0.0 0.0 0.0 34.450931932916035" Properties=species:S:1:pos:R:3:initial_magmoms:R:1 pbc="T T T"
Si      -1.34464176      -1.34970795      -1.38665079       0.00000000
Si       1.36787130       1.36684503      -1.38423922       0.00000000
Si       1.42200297      -1.32823773       1.42795748       0.00000000
Si      -1.28006820       1.40866146       1.54247244       0.00000000
Si       0.73340838       2.33137593       2.77385279       0.00000000
Si       2.35216197       0.47109051       2.84785343       0.00000000
Si      -2.67667343       2.72425815      -0.00871609       0.00000000
Si      -2.69283148      -2.71277370       0.01316026       0.00000000
Si       2.73800691      -2.69179218      -0.02638943       0.00000000
Si      -2.70216239       0.00689067      -2.74911700       0.00000000
