10
Lattice="16.28999089631971 0.0 0.0 0.0 16.28999089631971 0.0 0.0 0.0 34.450931932916035" Properties=species:S:1:pos:R:3:initial_magmoms:R:1 pbc="T T T"
Si       2.31181164      -0.10220346       0.35219207       0.00000000
Si      -0.61682085       1.14908031       1.96887186       0.00000000
Si      -0.52059582       1.29938814      -1.93721144       0.00000000
Si      -1.29847590      -2.00862819       0.22158852       0.00000000
Si       0.30680586      -0.62688155       3.24004306       0.00000000
Si      -2.54346358       2.05680798       0.99170508       0.00000000
Si      -1.31528718       3.11279094      -0.70393629       0.00000000
Si       2.18597139      -1.67590706       2.12796635       0.00000000
Si      -1.04345595      -2.83617764      -1.96425543       0.00000000
Si       3.28487850      -0.51495459      -1.77091669       0.00000000
