10
Lattice="16.28999089631971 0.0 0.0 0.0 16.28999089631971 0.0 0.0 0.0 34.450931932916035" Properties=species:S:1:pos:R:3:initial_magmoms:R:1 pbc="T T T"
Si       1.35555606      -1.35596331       1.35674736       0.00000000
Si      -1.35884664      -1.35619137      -1.35705742       0.00000000
Si       1.35651717       1.35905615      -1.35705742       0.00000000
Si      -1.35982404       1.35827155       1.36184610       0.00000000
Si       0.00143352      -2.69122203       2.71928248       0.00000000
Si       2.71476108      -2.71107954      -0.00068902       0.00000000
Si      -0.00094482      -2.71383255      -2.71397703       0.00000000
Si       2.71350675       0.00153126      -2.71459715       0.00000000
Si      -2.71622718      -2.71244790      -0.00027561       0.00000000
Si      -2.71640637       0.00162900      -2.71449380       0.00000000
