10
Lattice="16.28999089631971 0.0 0.0 0.0 16.28999089631971 0.0 0.0 0.0 34.450931932916035" Properties=species:S:1:pos:R:3:initial_magmoms:R:1 pbc="T T T"
Si      -1.46047995       1.21787298      -1.39691717       0.00000000
Si       1.26614025      -1.47312099      -1.40508204       0.00000000
Si       1.04488947       1.68332715       1.38451483       0.00000000
Si      -0.73091601      -1.88597475       1.39822630       0.00000000
Si      -0.10591758      -0.58257927       3.35776196       0.00000000
Si      -0.09511731       2.57637259      -2.76251842       0.00000000
Si       2.62026279      -0.13786227      -2.76761716       0.00000000
Si       2.55252897      -2.86886448       0.00203261       0.00000000
Si       1.93433976       0.57681261       3.27321932       0.00000000
Si      -2.86045884       2.57756670      -0.01316026       0.00000000
