10
Lattice="16.28999089631971 0.0 0.0 0.0 16.28999089631971 0.0 0.0 0.0 34.450931932916035" Properties=species:S:1:pos:R:3:initial_magmoms:R:1 pbc="T T T"
Si       0.70848468       2.19213783       0.39914872       0.00000000
Si      -2.25453600       0.45436068       0.49178733       0.00000000
Si       0.61035372      -1.36884870       1.82355775       0.00000000
Si       0.61740729      -1.32001128      -1.88677524       0.00000000
Si       2.02918014       2.35316285      -1.49823742       0.00000000
Si      -0.26565732      -3.33694134      -0.87839590       0.00000000
Si      -3.05991360      -1.53771084       1.38389471       0.00000000
Si      -0.30675699      -0.16322580      -3.72766182       0.00000000
Si      -3.07527507       1.48463802      -1.54367822       0.00000000
Si       2.23216983       2.11858522       2.19597253       0.00000000
