10
Lattice="16.28999089631971 0.0 0.0 0.0 16.28999089631971 0.0 0.0 0.0 34.450931932916035" Properties=species:S:1:pos:R:3:initial_magmoms:R:1 pbc="T T T"
Si      -0.61035372       1.36884870      -1.82355775       0.00000000
Si       0.52505928      -2.15915805      -0.82875208       0.00000000
Si       1.64533887       1.18306125       1.27819919       0.00000000
Si      -2.07733338      -0.42191100       1.25783868       0.00000000
Si      -0.87601104      -1.96809264      -2.70195365       0.00000000
Si      -0.16765668      -3.45554883       0.94871029       0.00000000
Si      -2.86488972       1.82320938      -1.33177042       0.00000000
Si       3.65132205       0.25982550       0.28001733       0.00000000
Si      -3.67026732      -0.16886214      -0.43966304       0.00000000
Si       0.00705357       0.04883742      -3.71033299       0.00000000
