10
Lattice="16.28999089631971 0.0 0.0 0.0 16.28999089631971 0.0 0.0 0.0 34.450931932916035" Properties=species:S:1:pos:R:3:initial_magmoms:R:1 pbc="T T T"
Si      -1.36563957      -1.34952876      -1.38044961       0.00000000
Si       1.35394335       1.36681245      -1.37996730       0.00000000
Si      -1.23411411       1.51974297       1.37693562       0.00000000
Si       1.35094599      -1.41169140       1.49754840       0.00000000
Si       2.69623935      -2.68205891      -0.02614827       0.00000000
Si      -2.70208746      -2.69837660       0.00554660       0.00000000
Si       2.71985985       2.70886410      -0.00192925       0.00000000
Si      -0.00513135      -2.70619743      -2.73798935       0.00000000
Si      -2.70993924       2.73929382      -0.01763889       0.00000000
Si       2.70992295       0.00860112      -2.74002195       0.00000000
