10
Lattice="16.28999089631971 0.0 0.0 0.0 16.28999089631971 0.0 0.0 0.0 34.450931932916035" Properties=species:S:1:pos:R:3:initial_magmoms:R:1 pbc="T T T"
Si      -1.03309551      -1.89224640       1.09188845       0.00000000
Si      -0.71886141       2.30656626      -0.26048364       0.00000000
Si       2.30400873       0.43567605       0.68478156       0.00000000
Si      -1.04518269      -0.78972291      -2.10230039       0.00000000
Si      -1.73596014       2.79683010       1.82180075       0.00000000
Si      -2.58681942       2.41414542      -1.86589797       0.00000000
Si       0.03715749      -3.94626879       0.66876186       0.00000000
Si       1.12141989       3.69773226      -1.07614436       0.00000000
Si       2.68499925       2.69922042       1.34734225       0.00000000
Si       0.38657799      -2.15484120      -3.40599329       0.00000000
