10
Lattice="16.28999089631971 0.0 0.0 0.0 16.28999089631971 0.0 0.0 0.0 34.450931932916035" Properties=species:S:1:pos:R:3:initial_magmoms:R:1 pbc="T T T"
Si      -2.00805201       0.94848525       0.76060810       0.00000000
Si       1.77901461       1.57861503       0.11716768       0.00000000
Si       0.08319303      -1.86536790       1.51908024       0.00000000
Si      -0.61452396      -0.09822870      -2.38228327       0.00000000
Si       2.79611334       1.08835119      -1.96511671       0.00000000
Si      -3.56483844      -0.46594287      -0.48813553       0.00000000
Si      -1.43839071       3.30879222       0.69129279       0.00000000
Si      -1.15196364      -3.47749146       0.32246090       0.00000000
Si      -2.21284989       0.36069318       3.03275168       0.00000000
Si       3.17552373       1.05016743       1.95123297       0.00000000
