10
Lattice="16.28999089631971 0.0 0.0 0.0 16.28999089631971 0.0 0.0 0.0 34.450931932916035" Properties=species:S:1:pos:R:3:initial_magmoms:R:1 pbc="T T T"
Si       2.19170547      -0.83132757      -0.21073647       0.00000000
Si      -0.84031965      -0.47273580       2.17292484       0.00000000
Si      -1.25789751      -1.17590994      -1.68423810       0.00000000
Si      -0.07478739       2.39502096      -0.45685406       0.00000000
Si      -2.37920337       2.50751970      -1.13477988       0.00000000
Si      -2.81590569       0.46260342      -2.34566191       0.00000000
Si       1.87722702       2.76149709      -1.82917325       0.00000000
Si       0.30170709       0.90202617       3.69620810       0.00000000
Si       2.66543496      -1.05472863      -2.54189453       0.00000000
Si      -2.34017253      -3.06235710      -0.66194058       0.00000000
