10
Lattice="16.28999089631971 0.0 0.0 0.0 16.28999089631971 0.0 0.0 0.0 34.450931932916035" Properties=species:S:1:pos:R:3:initial_magmoms:R:1 pbc="T T T"
Si      -1.87879086      -0.90109764       1.13116253       0.00000000
Si      -0.00397476       2.30664771       0.55479812       0.00000000
Si       1.70632863      -1.25095797       1.09099272       0.00000000
Si       0.25357014      -0.34761231      -2.37274036       0.00000000
Si       0.06371019       1.43223309       2.86342526       0.00000000
Si       0.79780275      -3.34960030       0.57581320       0.00000000
Si      -3.52184913      -0.30253788      -0.48751541       0.00000000
Si      -2.13503256       0.65541186       2.93987192       0.00000000
Si       1.68249636      -0.33591609       3.29051370       0.00000000
Si      -1.39398417      -3.19293122       1.58019623       0.00000000
