10
Lattice="16.28999089631971 0.0 0.0 0.0 16.28999089631971 0.0 0.0 0.0 34.450931932916035" Properties=species:S:1:pos:R:3:initial_magmoms:R:1 pbc="T T T"
Si       2.19874275       0.77682123      -0.07644666       0.00000000
Si      -0.82728765       2.12481873      -0.55073291       0.00000000
Si       0.25624170      -1.55650950      -1.80870939       0.00000000
Si       1.09064808       0.72861912       2.23383413       0.00000000
Si      -0.76097106       2.61158022       2.34252688       0.00000000
Si       2.13105780       1.65123585      -2.38507380       0.00000000
Si       2.13503256      -0.65541186      -2.93987192       0.00000000
Si       0.22590972      -1.15942446       3.55125025       0.00000000
Si       0.05439231       2.68936497      -2.68665743       0.00000000
Si      -1.38681657      -0.95794974      -3.42738733       0.00000000
