10
Lattice="16.28999089631971 0.0 0.0 0.0 16.28999089631971 0.0 0.0 0.0 34.450931932916035" Properties=species:S:1:pos:R:3:initial_magmoms:R:1 pbc="T T T"
Si       1.39044924      -1.36244673      -1.31087592       0.00000000
Si       1.37213928       1.34211681       1.36281073       0.00000000
Si      -1.34394129      -1.37101527       1.36815062       0.00000000
Si      -1.38425904       1.39795893      -1.38335383       0.00000000
Si      -2.61462645      -0.16296516      -2.62179662       0.00000000
Si      -2.70433548      -2.70788670       0.03246658       0.00000000
Si      -2.69775432      -0.01304829       2.72269312       0.00000000
Si       0.01376505       2.70163134       2.72176295       0.00000000
Si       2.72790711       2.71241532      -0.01195103       0.00000000
Si       0.01457955      -2.72771163       2.72207301       0.00000000
