10
Lattice="16.28999089631971 0.0 0.0 0.0 16.28999089631971 0.0 0.0 0.0 34.450931932916035" Properties=species:S:1:pos:R:3:initial_magmoms:R:1 pbc="T T T"
Si      -1.35852084       1.35669636      -1.35392238       0.00000000
Si       1.35778779       1.35643572       1.35774644       0.00000000
Si      -1.35738054      -1.35842310       1.35753973       0.00000000
Si       1.36130643      -1.36088289      -1.35902112       0.00000000
Si      -2.71891503       0.01982493      -2.68960643       0.00000000
Si      -2.71233387       2.71466334       0.00062012       0.00000000
Si      -0.00021177       2.71437012       2.71487276       0.00000000
Si       2.71691136       2.71274112       0.00117133       0.00000000
Si      -2.71477737      -0.00102627       2.71514836       0.00000000
Si       2.71531494      -0.00146610       2.71504501       0.00000000
