10
Lattice="16.28999089631971 0.0 0.0 0.0 16.28999089631971 0.0 0.0 0.0 34.450931932916035" Properties=species:S:1:pos:R:3:initial_magmoms:R:1 pbc="T T T"
Si      -1.48290639       1.20549258      -1.32881797       0.00000000
Si      -1.34826629      -1.34550513       1.35326437       0.00000000
Si       1.36484136       1.36964691       1.34668424       0.00000000
Si       1.39455432      -1.25981973      -1.42142213       0.00000000
Si       0.32591403       2.09679993      -2.48558032       0.00000000
Si       2.28470508       0.61167321      -2.53862204       0.00000000
Si      -2.59917620      -0.32865075      -2.69237315       0.00000000
Si      -2.69462556       2.71423980       0.00200849       0.00000000
Si       0.00425169      -2.70166392       2.70815138       0.00000000
Si       2.72852613      -2.68418475      -0.01874821       0.00000000
