10
Lattice="16.28999089631971 0.0 0.0 0.0 16.28999089631971 0.0 0.0 0.0 34.450931932916035" Properties=species:S:1:pos:R:3:initial_magmoms:R:1 pbc="T T T"
Si      -1.01709873       0.49026384       2.08228439       0.00000000
Si       0.71886141      -2.30656626       0.26048364       0.00000000
Si       1.84028130       1.39116600      -0.81566072       0.00000000
Si      -1.86795801       0.10757916      -1.60541433       0.00000000
Si      -2.79611334      -1.08835119       1.96511671       0.00000000
Si      -0.32632128      -3.09628917      -1.84181675       0.00000000
Si      -3.41063730      -1.18657989      -0.41716657       0.00000000
Si       3.02287014      -1.87089021       0.94526520       0.00000000
Si       1.68477696       0.77646285      -3.19491231       0.00000000
Si       3.40386066       0.39265416       1.60782589       0.00000000
