10
Lattice="16.28999089631971 0.0 0.0 0.0 16.28999089631971 0.0 0.0 0.0 34.450931932916035" Properties=species:S:1:pos:R:3:initial_magmoms:R:1 pbc="T T T"
Si       0.38123487      -2.09391660       1.03401085       0.00000000
Si      -0.89787222       1.64944395       1.48662745       0.00000000
Si      -1.17561672      -1.00178613      -1.87619880       0.00000000
Si       1.70818569       1.56809169      -0.78730759       0.00000000
Si      -2.12519340       2.78855478      -0.19640487       0.00000000
Si      -0.99465111       0.61965531      -3.55389122       0.00000000
Si      -1.57077954      -2.46039273       2.40633004       0.00000000
Si       1.03472451       2.76278400       2.39830297       0.00000000
Si       2.11698324      -1.99034478       2.59412217       0.00000000
Si       1.07647578      -3.70333602      -0.56399652       0.00000000
