10
Lattice="16.28999089631971 0.0 0.0 0.0 16.28999089631971 0.0 0.0 0.0 34.450931932916035" Properties=species:S:1:pos:R:3:initial_magmoms:R:1 pbc="T T T"
Si       1.35757602      -1.35723393       1.35719522       0.00000000
Si      -1.35698958       1.35752489       1.35753973       0.00000000
Si       1.35795069       1.35676350      -1.35740193       0.00000000
Si      -1.35816246      -1.35711990      -1.35788424       0.00000000
Si       0.00125433      -2.71261080       2.71390813       0.00000000
Si      -2.71456560       0.00065160      -2.71253009       0.00000000
Si      -2.71350675      -0.00153126       2.71459715       0.00000000
Si      -2.71487511       2.71482365      -0.00003445       0.00000000
Si      -2.71445157      -2.71536381       0.00062012       0.00000000
Si       2.71513575       2.71526185       0.00024116       0.00000000
