10
Lattice="16.28999089631971 0.0 0.0 0.0 16.28999089631971 0.0 0.0 0.0 34.450931932916035" Properties=species:S:1:pos:R:3:initial_magmoms:R:1 pbc="T T T"
Si      -1.24928010      -0.83204433       1.79582473       0.00000000
Si       1.90545759       1.01366154       1.02439903       0.00000000
Si      -1.65695364       1.01859741      -1.46016912       0.00000000
Si       1.24214508      -0.94429872      -1.87416620       0.00000000
Si       0.70398864       0.10329489       2.91771996       0.00000000
Si       1.10449458       3.17826601       0.65983907       0.00000000
Si      -0.01650177       2.26918790      -2.64242241       0.00000000
Si      -2.50240464      -1.06349265      -2.54961154       0.00000000
Si       0.59935797      -3.17148381      -1.94827019       0.00000000
Si      -1.00589121      -3.11746617       2.04635205       0.00000000
