10
Lattice="16.28999089631971 0.0 0.0 0.0 16.28999089631971 0.0 0.0 0.0 34.450931932916035" Properties=species:S:1:pos:R:3:initial_magmoms:R:1 pbc="T T T"
Si       1.35980775       1.34846339      -1.35091137       0.00000000
Si       1.35802434      -1.35643709       1.36057142       0.00000000
Si      -1.35817875       1.35971978       1.35843546       0.00000000
Si      -1.35394335      -1.36371476      -1.37837222       0.00000000
Si      -0.04329882       2.57824436      -2.72758516       0.00000000
Si      -2.65341294       0.08563816      -2.75331313       0.00000000
Si       2.71332171      -2.71440011       0.00523654       0.00000000
Si       2.71648686       2.71400522       0.00416857       0.00000000
Si      -2.71650411      -2.71399286      -0.00058567       0.00000000
Si       2.71348950       0.00098392       2.71700872       0.00000000
