10
Lattice="16.28999089631971 0.0 0.0 0.0 16.28999089631971 0.0 0.0 0.0 34.450931932916035" Properties=species:S:1:pos:R:3:initial_magmoms:R:1 pbc="T T T"
Si       1.35664013       1.35786924       1.35733303       0.00000000
Si      -1.35843928      -1.35697329       1.35736748       0.00000000
Si       1.35949739      -1.35902583      -1.35499036       0.00000000
Si      -1.35982393       1.35894438      -1.36043361       0.00000000
Si       0.01313811       2.70071910      -2.70624624       0.00000000
Si       2.70776368      -0.01352070      -2.70825473       0.00000000
Si       2.71201537      -2.71518462      -0.00010335       0.00000000
Si      -2.71516822      -2.71331127      -0.00072347       0.00000000
Si       2.71449145       0.00073305       2.71518282       0.00000000
Si      -0.00092054      -2.71472850       2.71525172       0.00000000
