10
Lattice="16.28999089631971 0.0 0.0 0.0 16.28999089631971 0.0 0.0 0.0 34.450931932916035" Properties=species:S:1:pos:R:3:initial_magmoms:R:1 pbc="T T T"
Si      -1.37218815      -1.33116178       1.35381903       0.00000000
Si       1.35635427      -1.35738217      -1.36070922       0.00000000
Si      -1.35850455       1.35949824      -1.36005465       0.00000000
Si       1.36070370       1.35801585       1.39636595       0.00000000
Si       2.71300945      -2.70950660      -0.00144694       0.00000000
Si       2.71384042       0.00105885      -2.71669866       0.00000000
Si      -0.00109143      -2.71354240      -2.71718097       0.00000000
Si      -2.71513575      -2.71640360      -0.00003445       0.00000000
Si      -2.71448415       2.71770957       0.00000000       0.00000000
Si       2.71593861       2.71630863       0.00547770       0.00000000
