10
Lattice="16.28999089631971 0.0 0.0 0.0 16.28999089631971 0.0 0.0 0.0 34.450931932916035" Properties=species:S:1:pos:R:3:initial_magmoms:R:1 pbc="T T T"
Si      -1.44342432      -1.10570004      -1.47639551       0.00000000
Si      -1.43176068       1.36511829       1.30369289       0.00000000
Si       1.23856128       1.55949057      -1.41162772       0.00000000
Si      -0.04028517      -1.97586297       1.67069888       0.00000000
Si      -2.29827465      -2.84333642       0.08430148       0.00000000
Si      -0.09813096      -2.37606755      -3.00009218       0.00000000
Si      -2.47119300       3.00286602      -0.13418645       0.00000000
Si       2.63476089       0.31311009      -2.95754526       0.00000000
Si      -0.38657799       2.15484120       3.40599329       0.00000000
Si       2.21941476       3.39403779      -0.05439805       0.00000000
