10
Lattice="16.28999089631971 0.0 0.0 0.0 16.28999089631971 0.0 0.0 0.0 34.450931932916035" Properties=species:S:1:pos:R:3:initial_magmoms:R:1 pbc="T T T"
Si      -0.90852588      -2.09864233      -0.51517952       0.00000000
Si       2.19789567       0.36036738      -0.80615226       0.00000000
Si      -1.70632863       1.25095797      -1.09099272       0.00000000
Si      -0.02383227       0.91504188       2.19952098       0.00000000
Si      -0.04663827      -2.20135078      -2.72214191       0.00000000
Si       2.58020568       2.35830330       0.38574730       0.00000000
Si      -3.58511949       0.34986033       0.04016981       0.00000000
Si      -1.64261844       2.68319106       1.77243254       0.00000000
Si       3.22905269      -1.65307662      -0.21976262       0.00000000
Si      -3.10031280      -1.94197325       0.48920351       0.00000000
