10
Lattice="16.28999089631971 0.0 0.0 0.0 16.28999089631971 0.0 0.0 0.0 34.450931932916035" Properties=species:S:1:pos:R:3:initial_magmoms:R:1 pbc="T T T"
Si       0.38099052       2.26354437       0.66256069       0.00000000
Si       1.00452285      -1.00962162       1.92587707       0.00000000
Si      -2.30400873      -0.43567605      -0.68478156       0.00000000
Si       1.47137796       0.71382780      -1.94262024       0.00000000
Si      -0.29251953       2.14889535       2.92471350       0.00000000
Si      -3.02287014       1.87089021      -0.94526520       0.00000000
Si       3.06635045       0.20430918       2.25946563       0.00000000
Si      -1.18258884       3.26205621      -1.76092592       0.00000000
Si       3.63416935      -0.18109593      -1.53575450       0.00000000
Si       1.49744196      -3.33088146       1.80371400       0.00000000
