10
Lattice="16.28999089631971 0.0 0.0 0.0 16.28999089631971 0.0 0.0 0.0 34.450931932916035" Properties=species:S:1:pos:R:3:initial_magmoms:R:1 pbc="T T T"
Si       0.04285899       1.16999667      -2.12286761       0.00000000
Si       1.06534971       1.56853152       1.60524349       0.00000000
Si      -1.71266544      -1.00823697       1.55363252       0.00000000
Si       0.92233980      -2.07102915      -1.24044095       0.00000000
Si       2.18929455       2.38433472      -1.60424299       0.00000000
Si       2.43543468      -2.75520915       0.36203237       0.00000000
Si      -2.51441037      -1.82329083      -2.10695127       0.00000000
Si       2.33998531       0.28768140       3.05641401       0.00000000
Si      -0.39341979      -2.42033562       3.02462957       0.00000000
Si       2.00355597       3.46445946       0.51663408       0.00000000
