10
Lattice="16.28999089631971 0.0 0.0 0.0 16.28999089631971 0.0 0.0 0.0 34.450931932916035" Properties=species:S:1:pos:R:3:initial_magmoms:R:1 pbc="T T T"
Si      -0.93820626      -1.89592794       1.08860941       0.00000000
Si       0.18573858      -1.08012474      -2.12087708       0.00000000
Si       1.85273405       1.12290228       1.08738640       0.00000000
Si      -1.85554503       1.63286073      -0.13199572       0.00000000
Si       0.33942367       2.28110499       2.52777033       0.00000000
Si      -2.39001993      -0.47022714       2.51878897       0.00000000
Si      -0.65394576       0.75595374      -3.40582865       0.00000000
Si      -2.60980461       1.38220650      -2.32530902       0.00000000
Si      -0.94209957       3.63926745       1.07414001       0.00000000
Si       3.03449210      -0.43824987       2.51253956       0.00000000
