10
Lattice="16.28999089631971 0.0 0.0 0.0 16.28999089631971 0.0 0.0 0.0 34.450931932916035" Properties=species:S:1:pos:R:3:initial_magmoms:R:1 pbc="T T T"
Si       1.63404080      -0.32552307      -1.61233897       0.00000000
Si      -0.80519841      -2.13570045       0.51590299       0.00000000
Si       1.06913292       0.39876291       2.08486821       0.00000000
Si      -0.99541674       2.20004595      -0.00458198       0.00000000
Si      -1.62724068      -0.24465951      -2.37050105       0.00000000
Si      -1.14137514       2.00880135      -2.29005808       0.00000000
Si      -2.93767344       1.15214283       0.83398863       0.00000000
Si      -2.63409300      -1.10473893       1.59297753       0.00000000
Si       1.12040895       1.70730603      -2.62309542       0.00000000
Si       2.47680395      -1.48033746       2.19745392       0.00000000
