10
Lattice="16.28999089631971 0.0 0.0 0.0 16.28999089631971 0.0 0.0 0.0 34.450931932916035" Properties=species:S:1:pos:R:3:initial_magmoms:R:1 pbc="T T T"
Si       0.47775964      -2.29213332      -0.02490804       0.00000000
Si      -2.16279139       0.89492373      -0.40686573       0.00000000
Si       0.96378808       1.06168446       2.08273225       0.00000000
Si      -0.93281916       3.17798352      -0.55421245       0.00000000
Si       0.27639895      -2.56020156      -2.51715875       0.00000000
Si      -0.56781890       0.38540511       3.79522014       0.00000000
Si       3.27199963       0.49769208       2.06747048       0.00000000
Si      -3.63416935       0.18109593       1.53575450       0.00000000
Si       2.80903783      -2.77202043       0.34295922       0.00000000
Si       3.81178507       1.25066475      -0.21710989       0.00000000
