10
Lattice="16.28999089631971 0.0 0.0 0.0 16.28999089631971 0.0 0.0 0.0 34.450931932916035" Properties=species:S:1:pos:R:3:initial_magmoms:R:1 pbc="T T T"
Si      -0.75425958      -0.25065423      -2.19331330       0.00000000
Si      -1.87256808      -0.73339209       1.26513987       0.00000000
Si       1.85554503      -1.63286073       0.13199572       0.00000000
Si       0.91344546       2.00640672       1.20613572       0.00000000
Si      -0.53447490      -2.10308787       2.65078469       0.00000000
Si       2.19496870       0.64824426       2.65976605       0.00000000
Si       1.20159927      -0.87690699      -3.27383293       0.00000000
Si      -2.32883469       1.51257537      -2.52132081       0.00000000
Si       0.91733877      -3.52878867       1.22060512       0.00000000
Si      -3.13887123      -2.24898111      -0.03216386       0.00000000
