10
Lattice="16.28999089631971 0.0 0.0 0.0 16.28999089631971 0.0 0.0 0.0 34.450931932916035" Properties=species:S:1:pos:R:3:initial_magmoms:R:1 pbc="T T T"
Si      -0.92647746       0.24073362      -2.10112906       0.00000000
Si      -0.98077203      -1.10846934       1.81584074       0.00000000
Si       1.89444555      -1.12308147      -0.88838668       0.00000000
Si      -0.33796863       2.26817073       0.76329527       0.00000000
Si       0.05633082       0.27331362       3.45818648       0.00000000
Si      -2.62028218       2.29934979       0.07841036       0.00000000
Si       3.45334968       0.55539126      -0.53870952       0.00000000
Si       0.60615090       1.93077225      -2.92636715       0.00000000
Si      -2.33414849       2.11983399      -2.21371477       0.00000000
Si      -3.28504859      -1.32726033       1.72420120       0.00000000
