10
Lattice="16.28999089631971 0.0 0.0 0.0 16.28999089631971 0.0 0.0 0.0 34.450931932916035" Properties=species:S:1:pos:R:3:initial_magmoms:R:1 pbc="T T T"
Si       0.92647746      -0.24073362       2.10112906       0.00000000
Si      -1.40767103       1.87910037      -0.11258571       0.00000000
Si      -1.41338882      -1.76834466      -0.75892000       0.00000000
Si       1.53262836       1.69003863      -0.82523808       0.00000000
Si       2.82092301      -1.36381509       1.21274238       0.00000000
Si      -1.69380472       2.05861617       2.17953943       0.00000000
Si       0.58850883       2.02743711       2.86442434       0.00000000
Si       0.25247871       3.60028548      -0.23557560       0.00000000
Si      -2.47680395       1.48033746      -2.19745392       0.00000000
Si       1.36837629       1.37463165      -3.10947395       0.00000000
