10
Lattice="16.28999089631971 0.0 0.0 0.0 16.28999089631971 0.0 0.0 0.0 34.450931932916035" Properties=species:S:1:pos:R:3:initial_magmoms:R:1 pbc="T T T"
Si      -0.56674539       2.20227768      -0.37554982       0.00000000
Si       0.31073175       0.21784617       2.32847644       0.00000000
Si      -1.03710285      -1.38178296      -1.64234574       0.00000000
Si       2.19227562      -1.06124463      -0.13563339       0.00000000
Si      -0.39429945       1.99485711      -2.69489121       0.00000000
Si       2.26952280      -1.26728055       2.27543472       0.00000000
Si      -0.05633082      -0.27331362      -3.45818648       0.00000000
Si      -0.05460408      -3.43249848      -0.98898346       0.00000000
Si       1.38914604       3.39796368       0.27157685       0.00000000
Si       3.50388126       0.34142211      -1.50709131       0.00000000
