10
Lattice="16.28999089631971 0.0 0.0 0.0 16.28999089631971 0.0 0.0 0.0 34.450931932916035" Properties=species:S:1:pos:R:3:initial_magmoms:R:1 pbc="T T T"
Si       1.35529737      -1.35796302      -1.35533487       0.00000000
Si       1.35546516       1.35742100       1.35643730       0.00000000
Si      -1.35867594      -1.35722997       1.35647175       0.00000000
Si      -1.35802434       1.35643709      -1.36057142       0.00000000
Si       0.00178341       2.70490048      -2.71148278       0.00000000
Si       0.01509757      -2.70192060      -2.71966833       0.00000000
Si       2.71098050       2.71428352      -0.00151584       0.00000000
Si       2.71205564      -2.71368198      -0.00120578       0.00000000
Si       2.71337513       0.00033194       2.71346027       0.00000000
Si       2.70619124      -0.00275329      -2.72064674       0.00000000
