10
Lattice="16.28999089631971 0.0 0.0 0.0 16.28999089631971 0.0 0.0 0.0 34.450931932916035" Properties=species:S:1:pos:R:3:initial_magmoms:R:1 pbc="T T T"
Si      -1.63404080       0.32552307       1.61233897       0.00000000
Si      -0.51363185       2.03282910      -1.01075646       0.00000000
Si       2.21113944       0.21981726       0.70031894       0.00000000
Si       0.09758850      -1.86372261      -1.42340995       0.00000000
Si      -3.26128148       0.08086356      -0.75816208       0.00000000
Si      -0.38063540       1.38585546      -3.23956074       0.00000000
Si       2.83468806       1.98189027      -0.78961580       0.00000000
Si       1.59479100      -3.24076518      -0.29131724       0.00000000
Si       1.09863018       3.51036468      -0.23151039       0.00000000
Si      -2.77541594       2.33432442      -0.67771911       0.00000000
