10
Lattice="16.28999089631971 0.0 0.0 0.0 16.28999089631971 0.0 0.0 0.0 34.450931932916035" Properties=species:S:1:pos:R:3:initial_magmoms:R:1 pbc="T T T"
Si       0.16425207       0.31540698       2.28423587       0.00000000
Si      -2.21113944      -0.21981726      -0.70031894       0.00000000
Si       1.00056438      -2.13410403       0.14114555       0.00000000
Si       0.62354862       1.76207301      -1.48993474       0.00000000
Si       3.07825614      -1.14461685      -0.33059133       0.00000000
Si      -1.11250926       3.29054742      -0.93182933       0.00000000
Si      -2.11355094      -2.08353987      -2.12372889       0.00000000
Si      -0.61634844      -3.46058244      -0.99163618       0.00000000
Si      -1.36837629      -1.37463165       3.10947395       0.00000000
Si      -2.72477129       1.81301184      -1.71107539       0.00000000
