10
Lattice="16.28999089631971 0.0 0.0 0.0 16.28999089631971 0.0 0.0 0.0 34.450931932916035" Properties=species:S:1:pos:R:3:initial_magmoms:R:1 pbc="T T T"
Si      -2.26178409       0.30149532       0.33303735       0.00000000
Si       1.61226203       1.47753558       0.77924606       0.00000000
Si       0.13299645      -0.64697364      -2.22880429       0.00000000
Si       0.51363185      -2.03282910       1.01075646       0.00000000
Si      -1.12040895      -1.70730603       2.62309542       0.00000000
Si       3.34831990      -0.05093883       0.22114066       0.00000000
Si      -2.74764963      -1.95196554       0.25259437       0.00000000
Si       2.54696593      -0.88531263      -2.04270025       0.00000000
Si      -2.11582569       0.49273992       2.61851345       0.00000000
Si      -2.07413958      -1.83731652      -2.00955843       0.00000000
