10
Lattice="16.28999089631971 0.0 0.0 0.0 16.28999089631971 0.0 0.0 0.0 34.450931932916035" Properties=species:S:1:pos:R:3:initial_magmoms:R:1 pbc="T T T"
Si      -1.35665518       1.35212443      -1.35926228       0.00000000
Si       1.34848569       1.35958362       1.36615247       0.00000000
Si       1.35879238      -1.36114353      -1.35843546       0.00000000
Si      -1.36238926      -1.37823174       1.37917493       0.00000000
Si       2.66447334      -0.00358380       2.75263100       0.00000000
Si      -2.71300945       2.70950660       0.00144694       0.00000000
Si       0.00083097       2.71056545      -2.71525172       0.00000000
Si       2.71671537       2.71080980      -0.00013780       0.00000000
Si      -2.71410088      -0.00403581      -2.71573403       0.00000000
Si       2.71616151      -0.00384226      -2.71563068       0.00000000
