10
Lattice="16.28999089631971 0.0 0.0 0.0 16.28999089631971 0.0 0.0 0.0 34.31052061344573" Properties=species:S:1:pos:R:3:initial_magmoms:R:1 pbc="T T T"
Si      -1.34373278      -1.35217589       1.36367240       0.00000000
Si       1.35738054      -1.35424309      -1.35427132       0.00000000
Si      -1.35866908       1.35767376      -1.35279596       0.00000000
Si       1.34697123       1.35487188       1.38878772       0.00000000
Si       2.46804903      -0.32956299       2.68994632       0.00000000
Si      -2.60852975       0.09330912       2.65611613       0.00000000
Si      -0.00016290      -2.71270118      -2.71190506       0.00000000
Si       2.71466334       0.00219915      -2.71214524       0.00000000
Si      -2.71593658       0.00327429      -2.71217955       0.00000000
Si      -2.71261888      -2.71575236       0.00559262       0.00000000
