10
Lattice="16.28999089631971 0.0 0.0 0.0 16.28999089631971 0.0 0.0 0.0 34.31052061344573" Properties=species:S:1:pos:R:3:initial_magmoms:R:1 pbc="T T T"
Si       1.36505313      -1.24803947       1.44358165       0.00000000
Si       1.22969952       1.43237318      -1.48411410       0.00000000
Si      -1.35200484       1.44151187       1.41810264       0.00000000
Si      -0.81961506      -1.96339853      -1.28037812       0.00000000
Si      -0.70389090      -0.90395002      -3.37157121       0.00000000
Si       2.55120948       2.61479912       0.07252905       0.00000000
Si       2.70444951      -2.62459334       0.10122295       0.00000000
Si      -0.00148239      -2.60261813       2.79089136       0.00000000
Si       2.66486481      -0.05774316      -2.81683840       0.00000000
Si      -2.71191033       0.10672231       2.79367051       0.00000000
