10
Lattice="16.28999089631971 0.0 0.0 0.0 16.28999089631971 0.0 0.0 0.0 34.31052061344573" Properties=species:S:1:pos:R:3:initial_magmoms:R:1 pbc="T T T"
Si      -1.62442251      -0.60128738      -1.67308485       0.00000000
Si       1.84067226      -1.57959962      -0.08337461       0.00000000
Si      -1.25532369      -0.07063670       2.19903112       0.00000000
Si       1.09432962       2.22407370       0.59683184       0.00000000
Si       0.77660946       1.81423359      -1.68574544       0.00000000
Si      -2.65473243      -2.29440482      -0.41728478       0.00000000
Si      -3.39492234      -0.46731433       0.94062345       0.00000000
Si      -0.32001705      -1.93841945      -3.02598375       0.00000000
Si       0.85164120      -3.26512592      -1.44879685       0.00000000
Si       2.01774456      -2.21618024       2.22407781       0.00000000
