10
Lattice="16.28999089631971 0.0 0.0 0.0 16.28999089631971 0.0 0.0 0.0 34.31052061344573" Properties=species:S:1:pos:R:3:initial_magmoms:R:1 pbc="T T T"
Si       2.10243627      -0.93719465      -0.01163127       0.00000000
Si      -0.91891890      -1.82713268      -1.07529232       0.00000000
Si      -0.49326120       0.28128920       2.26181940       0.00000000
Si      -1.57928292       1.65194609      -0.67248658       0.00000000
Si      -1.75115871       2.14527245       1.66941362       0.00000000
Si       0.32757561      -1.89353072      -3.16260832       0.00000000
Si      -3.01379661       0.51037547      -2.10735335       0.00000000
Si      -1.92730248      -1.47693937       2.84437806       0.00000000
Si       2.38951494      -2.05613750      -2.02830187       0.00000000
Si       1.55110122       0.86890208       3.30036513       0.00000000
