10
Lattice="16.28999089631971 0.0 0.0 0.0 16.28999089631971 0.0 0.0 0.0 34.31052061344573" Properties=species:S:1:pos:R:3:initial_magmoms:R:1 pbc="T T T"
Si      -1.42677594       1.21031442       1.46888567       0.00000000
Si      -1.66345335      -1.26913761      -1.19408810       0.00000000
Si       1.28130624      -1.49289705       1.43509322       0.00000000
Si       0.88936884       1.70478108      -1.84634763       0.00000000
Si       0.79685793      -0.40042449      -3.31061853       0.00000000
Si       2.51221122       2.57118102      -0.05719224       0.00000000
Si      -1.11135267       3.17703870      -1.37382287       0.00000000
Si      -2.83351518       2.34580887      -0.00756891       0.00000000
Si      -0.05388732      -2.60822448      -2.76892373       0.00000000
Si      -0.08262288       2.57712687       2.82477302       0.00000000
