10
Lattice="16.28999089631971 0.0 0.0 0.0 16.28999089631971 0.0 0.0 0.0 34.31052061344573" Properties=species:S:1:pos:R:3:initial_magmoms:R:1 pbc="T T T"
Si      -1.35070164       1.35687555       1.35715340       0.00000000
Si       1.35773892      -1.35244467       1.35807979       0.00000000
Si      -1.35588186      -1.35689184      -1.35859444       0.00000000
Si       1.35889551       1.35812988      -1.35746220       0.00000000
Si      -2.71316466      -2.71333408      -0.00072052       0.00000000
Si      -2.71482624       2.71420722       0.00099501       0.00000000
Si      -2.71423980       0.00174303      -2.71533612       0.00000000
Si       0.00162900      -2.71442388      -2.71554198       0.00000000
Si       2.71485882      -2.71521231       0.00041173       0.00000000
Si       2.71621089       2.71498914       0.00024017       0.00000000
