10
Lattice="16.28999089631971 0.0 0.0 0.0 16.28999089631971 0.0 0.0 0.0 34.31052061344573" Properties=species:S:1:pos:R:3:initial_magmoms:R:1 pbc="T T T"
Si       1.34807895      -1.28736612      -1.50263009       0.00000000
Si      -1.45166706      -1.36101321       1.35392821       0.00000000
Si       1.49711616       1.03158054       1.64471004       0.00000000
Si      -1.35363384       1.43710380      -1.48441119       0.00000000
Si       2.72227077      -2.64785805      -0.07956614       0.00000000
Si      -2.17471500       0.01811448       3.13004761       0.00000000
Si      -2.77086384      -2.62438416      -0.10162782       0.00000000
Si       0.00571779      -2.63886597      -2.88177655       0.00000000
Si       2.72903112       2.84972373      -0.09431967       0.00000000
Si      -2.71702539       0.08190612      -2.87714462       0.00000000
