10
Lattice="16.28999089631971 0.0 0.0 0.0 16.28999089631971 0.0 0.0 0.0 34.31052061344573" Properties=species:S:1:pos:R:3:initial_magmoms:R:1 pbc="T T T"
Si       1.35610992      -1.33972218      -1.42488241       0.00000000
Si      -1.37419182       1.36049193      -1.42306395       0.00000000
Si      -0.50215554      -1.83747942       1.56572717       0.00000000
Si       1.19672856       1.97060130       1.84638739       0.00000000
Si      -0.50702625       1.01934675       3.16322591       0.00000000
Si       2.57062716       2.59589295      -0.09692727       0.00000000
Si       0.60693282      -1.07196345       3.50416974       0.00000000
Si      -2.72227077       2.64785805       0.07956614       0.00000000
Si       2.60275104      -2.83214682       0.00085776       0.00000000
Si       3.29528781       0.64192374       1.91439088       0.00000000
