10
Lattice="16.28999089631971 0.0 0.0 0.0 16.28999089631971 0.0 0.0 0.0 34.31052061344573" Properties=species:S:1:pos:R:3:initial_magmoms:R:1 pbc="T T T"
Si       0.95532705      -0.27873819      -2.20434925       0.00000000
Si      -0.85074525      -2.20779999       0.54169480       0.00000000
Si       0.09251091       2.10520557       1.46427091       0.00000000
Si      -2.46031128      -0.86871312       2.11653043       0.00000000
Si      -0.79685793       0.40042449       3.31061853       0.00000000
Si       1.23701373      -2.62472625      -2.08920308       0.00000000
Si       2.79927360       1.06517052      -2.56824683       0.00000000
Si       0.44935965       3.87819288      -0.72951070       0.00000000
Si       2.64021804      -3.26045979      -0.18472795       0.00000000
Si       0.35409573      -3.84518934       1.85695503       0.00000000
