10
Lattice="16.28999089631971 0.0 0.0 0.0 16.28999089631971 0.0 0.0 0.0 34.31052061344573" Properties=species:S:1:pos:R:3:initial_magmoms:R:1 pbc="T T T"
Si       0.92388735       1.90452906       0.83968184       0.00000000
Si       0.98875413      -0.58122720      -2.01378851       0.00000000
Si      -2.34316989       0.21830229      -0.08138460       0.00000000
Si       0.66437136      -1.73947878       1.50678167       0.00000000
Si       0.16710282      -2.74615191      -1.71062058       0.00000000
Si       0.26819856       1.72874367       3.13227780       0.00000000
Si      -1.52151858      -2.62475883       1.94609382       0.00000000
Si      -3.04612737      -1.93653891       0.31534817       0.00000000
Si      -2.81885581       1.50759063       1.74541147       0.00000000
Si       1.31727456      -3.56428458       0.18314966       0.00000000
