10
Lattice="16.28999089631971 0.0 0.0 0.0 16.28999089631971 0.0 0.0 0.0 34.31052061344573" Properties=species:S:1:pos:R:3:initial_magmoms:R:1 pbc="T T T"
Si       0.87780294       0.99904941      -1.88467795       0.00000000
Si       1.05093306      -2.06418735       0.09864280       0.00000000
Si       0.44440749       1.46168541       1.79516175       0.00000000
Si      -2.77809660      -1.31313690      -0.16496508       0.00000000
Si      -1.98990495      -1.32139593       2.09489863       0.00000000
Si      -1.65183858       0.96402591       2.74096609       0.00000000
Si      -0.13768308      -2.75512770       2.02541978       0.00000000
Si      -2.51858061       2.33087094      -0.83206490       0.00000000
Si      -0.52602039       2.88144036      -2.02655203       0.00000000
Si      -0.09492183      -0.17456364      -3.67297759       0.00000000
