10
Lattice="16.28999089631971 0.0 0.0 0.0 16.28999089631971 0.0 0.0 0.0 34.31052061344573" Properties=species:S:1:pos:R:3:initial_magmoms:R:1 pbc="T T T"
Si      -0.03865780      -2.31505498       0.03434485       0.00000000
Si       1.92638047       0.48923757       1.23161114       0.00000000
Si       0.11588543       0.72586611      -2.23464546       0.00000000
Si      -1.84391464       0.99357597       1.15746606       0.00000000
Si       0.69899901       3.47359815      -0.09195225       0.00000000
Si      -0.90618079      -2.72242878       2.18379724       0.00000000
Si      -1.55385490       3.28953744       0.55788938       0.00000000
Si       1.51445524       2.61729801      -2.12004825       0.00000000
Si       3.72826624      -0.07231131      -0.14619721       0.00000000
Si      -1.63250302      -3.02697522      -1.50335061       0.00000000
