10
Lattice="16.28999089631971 0.0 0.0 0.0 16.28999089631971 0.0 0.0 0.0 34.31052061344573" Properties=species:S:1:pos:R:3:initial_magmoms:R:1 pbc="T T T"
Si      -0.98903106      -1.68552630      -1.36542224       0.00000000
Si       0.17707230      -0.63658062       2.30745242       0.00000000
Si       1.74430062       0.95197131      -1.37983267       0.00000000
Si      -1.84067226       1.57959962       0.08337461       0.00000000
Si       2.57442273      -1.03993731       2.23618943       0.00000000
Si      -2.16068931      -0.35881983      -2.94260913       0.00000000
Si      -2.85130386      -2.49085503      -0.03849643       0.00000000
Si       0.54292941       2.35301298      -2.91835158       0.00000000
Si       2.85819453       2.54049133       0.04216765       0.00000000
Si      -1.24993170      -2.53765620       2.61374261       0.00000000
