10
Lattice="16.28999089631971 0.0 0.0 0.0 16.28999089631971 0.0 0.0 0.0 34.31052061344573" Properties=species:S:1:pos:R:3:initial_magmoms:R:1 pbc="T T T"
Si      -2.37930111       0.14283072      -0.09486864       0.00000000
Si       1.42700400       1.90107558      -0.30629019       0.00000000
Si       0.79197093      -1.29498984       1.88337415       0.00000000
Si      -1.60137216       0.04680117      -2.65223904       0.00000000
Si       2.88117972      -1.82276955       0.90782257       0.00000000
Si      -2.47127445       2.18979954       1.30139877       0.00000000
Si       1.24993170       2.53765620      -2.61374261       0.00000000
Si       1.27806453       3.25441620       1.92766906       0.00000000
Si      -0.57098079      -3.11653764       2.50175301       0.00000000
Si       0.26090064       0.85212990      -3.97916485       0.00000000
