10
Lattice="16.28999089631971 0.0 0.0 0.0 16.28999089631971 0.0 0.0 0.0 34.31052061344573" Properties=species:S:1:pos:R:3:initial_magmoms:R:1 pbc="T T T"
Si      -1.35249354      -1.35350908      -1.35327974       0.00000000
Si       1.35389448      -1.35382277       1.35677599       0.00000000
Si      -1.35881406       1.36018405       1.35482028       0.00000000
Si       1.36829484       1.34695657      -1.38452635       0.00000000
Si      -0.16633719       2.50932952      -2.72433234       0.00000000
Si       2.71208952      -2.71268152      -0.00305364       0.00000000
Si      -0.00211770      -2.71229056       2.71314024       0.00000000
Si       2.71218726       0.00270740       2.71334611       0.00000000
Si      -0.01309716      -2.73006295      -2.69563844       0.00000000
Si      -2.71902906      -2.70808774      -0.00597003       0.00000000
