10
Lattice="16.28999089631971 0.0 0.0 0.0 16.28999089631971 0.0 0.0 0.0 34.31052061344573" Properties=species:S:1:pos:R:3:initial_magmoms:R:1 pbc="T T T"
Si       0.10432116      -2.33442039       0.17515531       0.00000000
Si      -1.95502806       0.63525054      -1.12960590       0.00000000
Si      -0.54823995       0.71940957       2.17817031       0.00000000
Si       1.69673382       1.41471564      -0.83439802       0.00000000
Si       1.24059753       2.18557310       2.49633194       0.00000000
Si      -2.25489438       2.88799790      -0.39251258       0.00000000
Si       1.70359191       0.88272496      -3.15183481       0.00000000
Si      -3.70545372      -0.55203375      -0.01914528       0.00000000
Si      -2.37605940       2.18922206       1.89726992       0.00000000
Si       2.05503237      -2.85672666       1.33711605       0.00000000
