10
Lattice="16.28999089631971 0.0 0.0 0.0 16.28999089631971 0.0 0.0 0.0 34.31052061344573" Properties=species:S:1:pos:R:3:initial_magmoms:R:1 pbc="T T T"
Si      -0.38110455      -2.32370823      -0.05990620       0.00000000
Si       2.28856581      -0.20859345       0.52656385       0.00000000
Si      -1.56861297       0.75202785       1.71727683       0.00000000
Si       0.38527479       0.80873334      -2.31578988       0.00000000
Si      -3.24935001       0.54187056      -0.28385110       0.00000000
Si       2.84446206       2.07985833       0.65196888       0.00000000
Si      -0.16540866       0.11629431       3.62175196       0.00000000
Si       3.06849843      -1.56990151      -1.30431517       0.00000000
Si      -2.11108626      -2.71602844      -1.63098582       0.00000000
Si      -2.96924346      -0.68202972      -2.28703765       0.00000000
