10
Lattice="16.28999089631971 0.0 0.0 0.0 16.28999089631971 0.0 0.0 0.0 34.31052061344573" Properties=species:S:1:pos:R:3:initial_magmoms:R:1 pbc="T T T"
Si       0.15882750       2.33595342      -0.28488041       0.00000000
Si      -1.81710063      -0.47729700      -1.46090847       0.00000000
Si       2.21706900      -0.71307846      -0.62699080       0.00000000
Si      -0.38527479      -0.80873334       2.31578988       0.00000000
Si      -2.14651701       2.77752645      -0.09291294       0.00000000
Si       1.90329102      -1.01732679       2.84235374       0.00000000
Si       1.04638815       2.88554544       1.82758521       0.00000000
Si      -3.35451825      -1.49076306       0.02875223       0.00000000
Si       2.68322364      -2.37863485       1.01147471       0.00000000
Si      -2.97458658       1.51399260      -1.89864234       0.00000000
