10
Lattice="16.28999089631971 0.0 0.0 0.0 16.28999089631971 0.0 0.0 0.0 34.31052061344573" Properties=species:S:1:pos:R:3:initial_magmoms:R:1 pbc="T T T"
Si       1.35731538       1.35685926       1.35770237       0.00000000
Si       1.35741312      -1.35674523      -1.35814841       0.00000000
Si      -1.35826020       1.35769005      -1.35825134       0.00000000
Si      -1.35889551      -1.35812988       1.35746220       0.00000000
Si      -2.70959715      -0.00125433       2.71461560       0.00000000
Si      -0.00115659      -2.71057455       2.71554198       0.00000000
Si       2.71485882       0.00141723      -2.71314024       0.00000000
Si       2.71759554      -0.00254124       2.71097868       0.00000000
Si       2.71511946      -2.71430496      -0.00030879       0.00000000
Si      -2.71477737      -2.71502172      -0.00113225       0.00000000
