10
Lattice="16.28999089631971 0.0 0.0 0.0 16.28999089631971 0.0 0.0 0.0 34.31052061344573" Properties=species:S:1:pos:R:3:initial_magmoms:R:1 pbc="T T T"
Si      -1.10908836      -0.76551597      -1.93844257       0.00000000
Si      -0.87522912      -0.70877790       2.08954618       0.00000000
Si      -1.11395907       2.09131020      -0.34094383       0.00000000
Si       2.36584557      -0.43992774      -0.07047385       0.00000000
Si       0.34697700      -2.81791588      -1.97549795       0.00000000
Si       0.58979574       3.04256475      -1.65778235       0.00000000
Si       2.68835499       1.71388719      -1.58977886       0.00000000
Si       1.02941397      -1.36422234       3.28468522       0.00000000
Si      -0.60693282       1.07196345      -3.50416974       0.00000000
Si      -2.37182400      -2.46426975       1.50252716       0.00000000
