10
Lattice="16.28999089631971 0.0 0.0 0.0 16.28999089631971 0.0 0.0 0.0 34.31052061344573" Properties=species:S:1:pos:R:3:initial_magmoms:R:1 pbc="T T T"
Si      -0.11834685       1.47258342      -1.83681856       0.00000000
Si       1.16963829      -1.96283097      -0.63433707       0.00000000
Si       1.19425248       1.61836263       1.26447823       0.00000000
Si      -1.78065990      -1.16680383       1.12311538       0.00000000
Si       2.40951906       0.20851200       2.66581675       0.00000000
Si      -0.33304905      -2.50150869       2.63653613       0.00000000
Si      -2.36726280       1.96613784      -2.10643078       0.00000000
Si       1.39007457      -3.32618994       1.29324076       0.00000000
Si      -0.28766511       2.89743714       2.64439325       0.00000000
Si       3.35406213      -1.54601874       1.46715745       0.00000000
