10
Lattice="16.28999089631971 0.0 0.0 0.0 16.28999089631971 0.0 0.0 0.0 34.31052061344573" Properties=species:S:1:pos:R:3:initial_magmoms:R:1 pbc="T T T"
Si      -1.35739683      -1.35707103      -1.35928065       0.00000000
Si       1.35757602       1.35830907      -1.35914341       0.00000000
Si       1.36207206      -1.36010097       1.35622702       0.00000000
Si      -1.36109466       1.36309833       1.35866307       0.00000000
Si      -0.00923643      -2.69475696       2.72178650       0.00000000
Si       2.71386513       2.71415835      -0.00174984       0.00000000
Si      -2.71467963      -2.71458189      -0.00013724       0.00000000
Si       0.00019548      -2.71332756      -2.71636544       0.00000000
Si       2.71523349      -2.71487511      -0.00336243       0.00000000
Si       2.71406061       0.00089595      -2.71609095       0.00000000
