10
Lattice="16.28999089631971 0.0 0.0 0.0 16.28999089631971 0.0 0.0 0.0 34.31052061344573" Properties=species:S:1:pos:R:3:initial_magmoms:R:1 pbc="T T T"
Si      -1.38983022       1.31445639      -1.40360987       0.00000000
Si       1.33434648      -1.39496157      -1.42176015       0.00000000
Si      -1.23191496      -1.81814319       1.73902971       0.00000000
Si       1.89576504       1.69130925       2.22081831       0.00000000
Si       2.61231327       2.60183880       0.05956310       0.00000000
Si      -0.01751175       2.66289372      -2.78488358       0.00000000
Si       2.56386681      -2.90168883      -0.08217374       0.00000000
Si       2.70565497      -0.06030558      -2.78731963       0.00000000
Si      -2.73095334      -0.05514165      -2.78381996       0.00000000
Si      -0.01376505      -2.77179237      -2.78526100       0.00000000
