10
Lattice="16.28999089631971 0.0 0.0 0.0 16.28999089631971 0.0 0.0 0.0 34.31052061344573" Properties=species:S:1:pos:R:3:initial_magmoms:R:1 pbc="T T T"
Si      -0.70788195      -1.54973286       1.58058364       0.00000000
Si       2.29037400       0.20670381       0.46960836       0.00000000
Si       0.21115098      -0.73806732      -2.25636403       0.00000000
Si      -1.01854854       2.16611388      -0.06282260       0.00000000
Si       0.54043704       2.86549245      -1.67425141       0.00000000
Si       2.49114825       2.34318618      -0.51229067       0.00000000
Si       0.30893985      -0.59530176       3.56575716       0.00000000
Si      -0.09839160       1.33949412      -3.37509349       0.00000000
Si      -3.07288044      -1.38554595       1.35512908       0.00000000
Si       2.32342641       0.51131052       2.82259087       0.00000000
