10
Lattice="16.28999089631971 0.0 0.0 0.0 16.28999089631971 0.0 0.0 0.0 34.31052061344573" Properties=species:S:1:pos:R:3:initial_magmoms:R:1 pbc="T T T"
Si       1.35656604      -1.35498591       1.36212843       0.00000000
Si       1.36738260       1.34814411      -1.35986393       0.00000000
Si      -1.35917244       1.35985662       1.35890324       0.00000000
Si      -1.36834371      -1.34627076      -1.37960622       0.00000000
Si      -0.01211976       2.70013266      -2.69227601       0.00000000
Si       2.70298341      -2.70286938       0.00892074       0.00000000
Si      -0.00141723      -2.71125873       2.71688009       0.00000000
Si       2.71244790       0.00296478       2.71715458       0.00000000
Si       2.71306692       2.71751409       0.00030879       0.00000000
Si      -2.72044629      -2.71015101       0.00082345       0.00000000
