10
Lattice="16.28999089631971 0.0 0.0 0.0 16.28999089631971 0.0 0.0 0.0 34.31052061344573" Properties=species:S:1:pos:R:3:initial_magmoms:R:1 pbc="T T T"
Si      -1.34575893       1.34550513      -1.35876600       0.00000000
Si       1.35864726       1.35503478       1.35492322       0.00000000
Si      -1.35558180      -1.35814617       1.35564374       0.00000000
Si       1.35701012      -1.35576783      -1.36044721       0.00000000
Si       0.01891953       2.68596036      -2.73285508       0.00000000
Si       0.00069764       2.71448415       2.71193938       0.00000000
Si       0.00064671      -2.71513575       2.71173351       0.00000000
Si       2.71528009      -0.00073305       2.71169920       0.00000000
Si      -2.71442844      -0.00074934       2.71265990       0.00000000
Si       2.71552444       2.71238274      -0.00195570       0.00000000
