10
Lattice="16.28999089631971 0.0 0.0 0.0 16.28999089631971 0.0 0.0 0.0 34.31052061344573" Properties=species:S:1:pos:R:3:initial_magmoms:R:1 pbc="T T T"
Si       1.61210727       1.65688848       0.41038837       0.00000000
Si      -0.51126165      -1.75698076       1.53573976       0.00000000
Si       1.21898070      -1.59069081      -1.32901876       0.00000000
Si      -1.88325432       1.05417477      -1.11632772       0.00000000
Si       2.13896987       0.07081263      -2.64348985       0.00000000
Si      -3.13331634       1.17258678       0.93990293       0.00000000
Si      -0.67233717       2.65567725      -2.46895213       0.00000000
Si      -0.54431406      -2.67175939      -2.56886442       0.00000000
Si       3.37675314       1.31755149      -1.11190166       0.00000000
Si       1.20518307      -3.42261764       1.24430604       0.00000000
