10
Lattice="16.28999089631971 0.0 0.0 0.0 16.28999089631971 0.0 0.0 0.0 34.31052061344573" Properties=species:S:1:pos:R:3:initial_magmoms:R:1 pbc="T T T"
Si      -1.90842237       1.11418713      -0.85790074       0.00000000
Si      -0.07131762      -1.32172173       2.03358569       0.00000000
Si       1.46241846       1.91646963       0.44905634       0.00000000
Si       0.38481867      -2.09257919      -1.29714427       0.00000000
Si       2.50347978      -2.61333954      -0.42997968       0.00000000
Si      -3.56680953      -0.61929693      -0.85525883       0.00000000
Si      -1.17977067       1.93067451      -2.95948992       0.00000000
Si      -1.86015510      -2.78788526       1.71542406       0.00000000
Si      -1.31191515      -3.50729483      -0.46274625       0.00000000
Si       1.77117912      -2.81258253       1.85867056       0.00000000
