10
Lattice="16.28999089631971 0.0 0.0 0.0 16.28999089631971 0.0 0.0 0.0 34.31052061344573" Properties=species:S:1:pos:R:3:initial_magmoms:R:1 pbc="T T T"
Si      -1.35663283       1.35576783      -1.35677599       0.00000000
Si       1.35760860      -1.35684297      -1.35667305       0.00000000
Si       1.35702216       1.35562122       1.35965807       0.00000000
Si      -1.35736588      -1.36000323       1.35941790       0.00000000
Si       2.71306692      -0.00117288      -2.71262559       0.00000000
Si       0.00024435       2.71311579      -2.71365490       0.00000000
Si      -2.71528009       0.00073305      -2.71169920       0.00000000
Si      -2.71463338      -2.71440270       0.00003431       0.00000000
Si      -0.00060273      -2.71502172      -2.71454698       0.00000000
Si      -2.71458245       2.71521720       0.00024017       0.00000000
