10
Lattice="16.28999089631971 0.0 0.0 0.0 16.28999089631971 0.0 0.0 0.0 34.31052061344573" Properties=species:S:1:pos:R:3:initial_magmoms:R:1 pbc="T T T"
Si      -1.35754344      -1.35542574       1.35584960       0.00000000
Si       1.35679410       1.35731538       1.35718771       0.00000000
Si      -1.35747828       1.35769005      -1.35735926       0.00000000
Si       1.35884664      -1.35739683      -1.35701616       0.00000000
Si      -2.71194291      -0.00298107       2.71121885       0.00000000
Si       2.71442844       0.00074934      -2.71265990       0.00000000
Si      -2.71467963       0.00097740      -2.71290007       0.00000000
Si      -0.00312768      -2.71366965       2.71543905       0.00000000
Si      -2.71441899      -2.71474479      -0.00006862       0.00000000
Si      -2.71428867       2.71503801      -0.00037742       0.00000000
