10
Lattice="16.28999089631971 0.0 0.0 0.0 16.28999089631971 0.0 0.0 0.0 34.31052061344573" Properties=species:S:1:pos:R:3:initial_magmoms:R:1 pbc="T T T"
Si       1.36042677       1.34395758       1.34984526       0.00000000
Si      -1.35796698       1.35397593      -1.35890324       0.00000000
Si       1.35583299      -1.36052451      -1.35711909       0.00000000
Si      -1.35658233      -1.38254859       1.36995123       0.00000000
Si       0.00980658       2.67203241       2.69471548       0.00000000
Si       2.63638989      -0.03230307       2.77973700       0.00000000
Si      -2.71112841       2.70875007       0.00068621       0.00000000
Si      -0.00071676       2.71148679      -2.71475284       0.00000000
Si       2.71772586       2.70959715      -0.00229881       0.00000000
Si       2.71416497      -0.00260640      -2.71502732       0.00000000
