10
Lattice="16.28999089631971 0.0 0.0 0.0 16.28999089631971 0.0 0.0 0.0 34.31052061344573" Properties=species:S:1:pos:R:3:initial_magmoms:R:1 pbc="T T T"
Si      -1.35679410      -1.35731538      -1.35718771       0.00000000
Si       1.35632169      -1.35671265       1.35996687       0.00000000
Si      -1.35583299       1.36052451       1.35711909       0.00000000
Si       1.35833198       1.35791811      -1.35790823       0.00000000
Si       0.00459378       2.70448209       2.70696435       0.00000000
Si      -2.71433754      -2.71274112      -0.00133811       0.00000000
Si       0.00022806      -2.70716994       2.72003666       0.00000000
Si      -2.71379997       2.71450044      -0.00178415       0.00000000
Si      -2.71427238       0.00037467      -2.71454698       0.00000000
Si       0.00205254      -2.71471221      -2.71420387       0.00000000
