10
Lattice="16.28999089631971 0.0 0.0 0.0 16.28999089631971 0.0 0.0 0.0 34.31052061344573" Properties=species:S:1:pos:R:3:initial_magmoms:R:1 pbc="T T T"
Si      -2.24849241       0.45533808       0.46892215       0.00000000
Si       0.41094783       2.34936009      -0.32684220       0.00000000
Si       0.03979647      -1.35677781      -2.01639611       0.00000000
Si       1.26136714      -1.44959823       1.57077082       0.00000000
Si      -1.92182904       1.04246226       2.72840843       0.00000000
Si       2.51992195       2.27141244      -1.23617444       0.00000000
Si       0.27561051      -3.51267786       0.88833419       0.00000000
Si       0.35376993       1.03785219       3.51182099       0.00000000
Si       2.29265038      -1.17271710      -2.66623774       0.00000000
Si      -3.26490696      -1.61868843       0.70930179       0.00000000
