10
Lattice="16.28999089631971 0.0 0.0 0.0 16.28999089631971 0.0 0.0 0.0 34.31052061344573" Properties=species:S:1:pos:R:3:initial_magmoms:R:1 pbc="T T T"
Si       0.71936640       1.52441820       1.69977845       0.00000000
Si      -2.27559897       0.00461007      -0.78341255       0.00000000
Si       1.86776809       1.18193724      -0.96748860       0.00000000
Si       1.34326755      -1.99285344       0.44027285       0.00000000
Si       0.90759721      -2.48745042      -1.94105017       0.00000000
Si       0.76668885       2.89782810      -2.10515748       0.00000000
Si      -0.35376993      -1.03785219      -3.51182099       0.00000000
Si      -3.24210096      -1.74057021       0.66836932       0.00000000
Si       0.78698595       0.55327356       3.78931644       0.00000000
Si       3.11009399       2.11256865       1.18367931       0.00000000
