10
Lattice="16.28999089631971 0.0 0.0 0.0 16.28999089631971 0.0 0.0 0.0 34.31052061344573" Properties=species:S:1:pos:R:3:initial_magmoms:R:1 pbc="T T T"
Si       1.31919678       1.26337095       1.45555603       0.00000000
Si      -1.30686036       1.34601012      -1.41242768       0.00000000
Si      -1.31400841      -1.39040037       1.40395298       0.00000000
Si       1.40370930      -1.37557647      -1.39496362       0.00000000
Si       1.13143824      -0.99777879       2.42002530       0.00000000
Si      -2.55179168      -2.63713923      -0.12763521       0.00000000
Si       2.77086384       2.62438416       0.10162782       0.00000000
Si      -2.73692267       2.67274917      -0.00096070       0.00000000
Si      -2.66115788      -0.01218492      -2.77784992       0.00000000
Si       0.05383845       2.70629028      -2.77551681       0.00000000
