10
Lattice="16.28999089631971 0.0 0.0 0.0 16.28999089631971 0.0 0.0 0.0 34.31052061344573" Properties=species:S:1:pos:R:3:initial_magmoms:R:1 pbc="T T T"
Si      -1.35803214      -1.35627282      -1.35705047       0.00000000
Si       1.35735464       1.35946566      -1.35698185       0.00000000
Si       1.36041048      -1.35816246       1.35540356       0.00000000
Si      -1.35816246       1.35998694       1.36233429       0.00000000
Si       2.71270758      -2.71213839      -0.00099501       0.00000000
Si      -0.00112401      -2.71252935      -2.71468422       0.00000000
Si       0.00047241       2.71158453       2.71588509       0.00000000
Si      -2.71528236      -2.71378368      -0.00120087       0.00000000
Si       2.71480085       0.00201996      -2.71430680       0.00000000
Si      -2.71645524       0.00198738      -2.71392939       0.00000000
