10
Lattice="16.28999089631971 0.0 0.0 0.0 16.28999089631971 0.0 0.0 0.0 34.31052061344573" Properties=species:S:1:pos:R:3:initial_magmoms:R:1 pbc="T T T"
Si       1.10107924      -1.71589086       1.13766888       0.00000000
Si       1.81357289       1.26016182      -0.95297524       0.00000000
Si      -1.16177022       1.55631402       1.43229348       0.00000000
Si      -0.70951095      -1.58632020      -1.73350571       0.00000000
Si       1.39946317      -1.66426785      -2.64283795       0.00000000
Si       2.44072160      -2.52716544      -0.69619516       0.00000000
Si       0.36580565       3.32878005       1.32243114       0.00000000
Si      -0.76668885      -2.89782810       2.10515748       0.00000000
Si      -2.11066272       1.59868431      -2.54422946       0.00000000
Si       1.92827078       0.56278692      -3.15849105       0.00000000
