10
Lattice="16.28999089631971 0.0 0.0 0.0 16.28999089631971 0.0 0.0 0.0 34.31052061344573" Properties=species:S:1:pos:R:3:initial_magmoms:R:1 pbc="T T T"
Si       0.70319043      -1.31657409      -1.81763516       0.00000000
Si      -0.33767541      -1.59190767       1.71425750       0.00000000
Si      -2.31016635       0.31259046      -0.64387159       0.00000000
Si       1.25006202       2.03954777      -0.40822680       0.00000000
Si      -1.45627713       0.19437228       2.97554725       0.00000000
Si      -2.80583847       1.43840930       1.47284854       0.00000000
Si      -2.87754705      -1.98614196      -0.91832160       0.00000000
Si      -0.14981913       0.03419271      -3.61444381       0.00000000
Si      -0.95550624      -2.96776107      -1.98812423       0.00000000
Si       2.86578567      -2.08806849      -1.21641157       0.00000000
