10
Lattice="16.28999089631971 0.0 0.0 0.0 16.28999089631971 0.0 0.0 0.0 34.31052061344573" Properties=species:S:1:pos:R:3:initial_magmoms:R:1 pbc="T T T"
Si       1.44769230       1.68432084      -0.76063036       0.00000000
Si      -0.57487410      -1.90500147      -1.25188867       0.00000000
Si       1.46935800      -1.22704425       1.40117382       0.00000000
Si      -1.83628536       1.10990286       1.05559807       0.00000000
Si      -0.08117307       1.78209342      -2.51448222       0.00000000
Si       1.04488947       0.17760987       3.16411798       0.00000000
Si      -1.35288450       0.13092273       3.16199073       0.00000000
Si      -2.92474570      -1.90881333      -0.66291394       0.00000000
Si       1.09061550       3.32154729       0.87790378       0.00000000
Si      -1.24442568       3.42309915       1.05161804       0.00000000
