10
Lattice="16.28999089631971 0.0 0.0 0.0 16.28999089631971 0.0 0.0 0.0 34.31052061344573" Properties=species:S:1:pos:R:3:initial_magmoms:R:1 pbc="T T T"
Si       0.29722734       2.29614066       0.30718226       0.00000000
Si       1.80188577      -0.56154888      -1.37780835       0.00000000
Si      -1.92638047      -0.48923757      -1.23161114       0.00000000
Si      -0.01979235      -1.21163391       2.01104367       0.00000000
Si      -1.22738145       2.98436058      -1.32356338       0.00000000
Si      -1.96503827      -2.80429255      -1.19726629       0.00000000
Si      -2.28633310      -1.49180562       2.51688396       0.00000000
Si       3.13602048       1.35661491      -1.45576189       0.00000000
Si      -3.77029511       0.50433840      -0.07414508       0.00000000
Si       1.23618294      -0.12375513       3.66477738       0.00000000
