10
Lattice="16.28999089631971 0.0 0.0 0.0 16.28999089631971 0.0 0.0 0.0 34.31052061344573" Properties=species:S:1:pos:R:3:initial_magmoms:R:1 pbc="T T T"
Si       2.22957076       0.49782240      -0.49980163       0.00000000
Si      -0.98575663      -2.06307963      -0.68243664       0.00000000
Si       0.43567035       0.49459698       2.38132301       0.00000000
Si      -1.26136714       1.44959823      -1.57077082       0.00000000
Si      -0.90759721       2.48745042       1.94105017       0.00000000
Si      -3.11347498      -1.78351065       0.27870451       0.00000000
Si       2.55589204      -0.41133879      -2.60626291       0.00000000
Si      -0.66420832      -1.23820290       3.46622228       0.00000000
Si       2.29981324       2.85811308      -0.86030247       0.00000000
Si      -1.22157067       0.09282042      -3.58716693       0.00000000
