10
Lattice="16.28999089631971 0.0 0.0 0.0 16.28999089631971 0.0 0.0 0.0 34.31052061344573" Properties=species:S:1:pos:R:3:initial_magmoms:R:1 pbc="T T T"
Si      -0.06761955       0.97114464      -2.08953799       0.00000000
Si      -1.79287716      -0.93494826       1.30031731       0.00000000
Si       1.18384734       1.93950369       1.03497332       0.00000000
Si       0.00198762      -1.93754889       2.46638159       0.00000000
Si       2.69499245       0.79078176       2.45408812       0.00000000
Si      -2.73742023       0.81958248       2.49897660       0.00000000
Si       1.47674480      -3.39185493       0.87842462       0.00000000
Si       2.32310804       1.55929509      -2.60563713       0.00000000
Si      -0.78698595      -0.55327356      -3.78931644       0.00000000
Si      -0.95879658       3.13779609      -2.19559187       0.00000000
