10
Lattice="16.28999089631971 0.0 0.0 0.0 16.28999089631971 0.0 0.0 0.0 34.31052061344573" Properties=species:S:1:pos:R:3:initial_magmoms:R:1 pbc="T T T"
Si      -1.34840801      -1.34206794       1.38068700       0.00000000
Si      -1.51114511       1.14872193      -1.41911481       0.00000000
Si       1.36596537       1.37207412       1.38408374       0.00000000
Si       1.32167286      -1.57188726      -1.44818956       0.00000000
Si       0.01519857       2.24505522      -2.95772434       0.00000000
Si      -2.69499245      -0.79078176      -2.45408812       0.00000000
Si       2.71143792       2.70726768       0.01612252       0.00000000
Si      -2.69300483      -2.72833065       0.01229347       0.00000000
Si      -2.70326753       2.72474685       0.01362472       0.00000000
Si       2.72841210      -2.70738171       0.02826502       0.00000000
