10
Lattice="16.28999089631971 0.0 0.0 0.0 16.28999089631971 0.0 0.0 0.0 34.31052061344573" Properties=species:S:1:pos:R:3:initial_magmoms:R:1 pbc="T T T"
Si       1.51114511      -1.14872193       1.41911481       0.00000000
Si       1.52634368       1.09633329      -1.53860953       0.00000000
Si      -1.19212242       1.57602492       1.43273952       0.00000000
Si      -1.18384734      -1.93950369      -1.03497332       0.00000000
Si      -0.15222028       2.52843606      -2.37331635       0.00000000
Si      -1.25146689      -0.96835905      -3.12451130       0.00000000
Si       0.16273710      -2.49078987       2.79980181       0.00000000
Si      -2.55430851       0.22133223       2.80192906       0.00000000
Si       1.13926070      -0.38020860      -3.64061044       0.00000000
Si       2.83066769       2.66923053      -0.10596467       0.00000000
