10
Lattice="16.28999089631971 0.0 0.0 0.0 16.28999089631971 0.0 0.0 0.0 34.31052061344573" Properties=species:S:1:pos:R:3:initial_magmoms:R:1 pbc="T T T"
Si       1.35585799       1.35822762       1.35632995       0.00000000
Si      -1.35797360       1.35783666      -1.35735926       0.00000000
Si      -1.35833198      -1.35791811       1.35790823       0.00000000
Si       1.35794963      -1.35944937      -1.35701616       0.00000000
Si       0.00356089       2.71220355       2.71272852       0.00000000
Si      -0.00069764      -2.71448415      -2.71193938       0.00000000
Si       2.71482680      -0.00210141      -2.71389508       0.00000000
Si      -2.71488173       2.71409319       0.00027448       0.00000000
Si      -2.71416497       0.00260640       2.71502732       0.00000000
Si       2.71487567       2.71480995       0.00010293       0.00000000
