10
Lattice="16.28999089631971 0.0 0.0 0.0 16.28999089631971 0.0 0.0 0.0 34.31052061344573" Properties=species:S:1:pos:R:3:initial_magmoms:R:1 pbc="T T T"
Si      -1.35712804       1.35438318      -1.36387827       0.00000000
Si       1.35861858      -1.36344042      -1.36079032       0.00000000
Si      -1.36069881      -1.36028016       1.36308912       0.00000000
Si       1.36339155       1.35519768       1.39273343       0.00000000
Si      -2.70942515       2.70835911      -0.00747970       0.00000000
Si       2.71510317       2.71267596      -0.00099501       0.00000000
Si       0.00188964       2.71096551      -2.72010528       0.00000000
Si      -2.71298603      -0.00384444      -2.72020822       0.00000000
Si      -2.71499633      -2.71847520      -0.00233312       0.00000000
Si       2.71746522      -0.00369783      -2.72000235       0.00000000
