10
Lattice="16.28999089631971 0.0 0.0 0.0 16.28999089631971 0.0 0.0 0.0 34.31052061344573" Properties=species:S:1:pos:R:3:initial_magmoms:R:1 pbc="T T T"
Si      -0.31183458       0.82376901      -2.19004175       0.00000000
Si       2.15394525      -1.04457996      -0.24243827       0.00000000
Si       0.21100437       1.93090257       1.56699666       0.00000000
Si      -2.11299938      -1.55144331       0.34859508       0.00000000
Si       0.99069264       0.59642577       3.32366199       0.00000000
Si      -3.63784112       0.34567380       0.58458298       0.00000000
Si       0.39883296      -1.71677052       3.32764201       0.00000000
Si      -1.17912626      -1.01432943      -3.47507440       0.00000000
Si      -1.98557900       2.69939961       2.02212597       0.00000000
Si      -2.05448570       2.56323150      -2.25656989       0.00000000
