10
Lattice="16.28999089631971 0.0 0.0 0.0 16.28999089631971 0.0 0.0 0.0 34.31052061344573" Properties=species:S:1:pos:R:3:initial_magmoms:R:1 pbc="T T T"
Si      -1.10107924       1.71589086      -1.13766888       0.00000000
Si       1.33964236      -0.81127458      -1.83386404       0.00000000
Si      -1.86776809      -1.18193724       0.96748860       0.00000000
Si       1.24232590       0.93063141       2.15116791       0.00000000
Si      -1.14840169       0.34248096       2.66726705       0.00000000
Si      -1.81059019       0.12957066      -2.87117459       0.00000000
Si      -0.52450053      -3.17479068       1.40776145       0.00000000
Si       0.71249365       2.97605268      -2.09064412       0.00000000
Si       1.26939988      -3.17156526      -1.47336320       0.00000000
Si       0.29838393       0.05162301      -3.78050683       0.00000000
