10
Lattice="16.28999089631971 0.0 0.0 0.0 16.28999089631971 0.0 0.0 0.0 34.31052061344573" Properties=species:S:1:pos:R:3:initial_magmoms:R:1 pbc="T T T"
Si      -1.36147652      -1.35252612      -1.36181963       0.00000000
Si       1.34917038       1.36581876      -1.36120205       0.00000000
Si      -1.38245804       1.31593878       1.37804852       0.00000000
Si       1.32771645      -1.26255645       1.54387136       0.00000000
Si       0.38755539       2.35416564       2.59583251       0.00000000
Si      -2.31817193      -0.51686541       2.63872068       0.00000000
Si      -0.57552081      -2.25632790       2.70524882       0.00000000
Si       2.03165622       0.57811581       2.89124626       0.00000000
Si       2.71134018      -2.70568755       0.03839349       0.00000000
Si       2.70664866       0.00853596      -2.71684578       0.00000000
