10
Lattice="16.28999089631971 0.0 0.0 0.0 16.28999089631971 0.0 0.0 0.0 34.31052061344573" Properties=species:S:1:pos:R:3:initial_magmoms:R:1 pbc="T T T"
Si      -1.82582555      -1.13606460       0.89495612       0.00000000
Si       1.94261508      -0.17668134       1.27895968       0.00000000
Si      -0.43051212       0.90258003      -2.14495771       0.00000000
Si      -0.27386748       2.30432771       0.63567137       0.00000000
Si       2.07233235       2.03359473       0.56862858       0.00000000
Si      -2.14894911       0.27256428       2.77263472       0.00000000
Si      -2.71148190       1.44230031      -1.73683383       0.00000000
Si      -3.46961429      -0.44106804      -0.60225290       0.00000000
Si       1.14903144      -0.87537573       3.40017449       0.00000000
Si      -0.33853878      -1.14438879      -3.54122512       0.00000000
