10
Lattice="16.28999089631971 0.0 0.0 0.0 16.28999089631971 0.0 0.0 0.0 34.31052061344573" Properties=species:S:1:pos:R:3:initial_magmoms:R:1 pbc="T T T"
Si      -0.75813238      -1.88336835       1.13458093       0.00000000
Si      -1.07225245       0.13141143      -2.07167039       0.00000000
Si       2.28096978      -0.53972028      -0.40812387       0.00000000
Si      -0.67689415       1.80827864       1.40436470       0.00000000
Si       2.43761442       0.86202740       2.37250521       0.00000000
Si       0.76658134       0.92042167      -3.29926720       0.00000000
Si       2.71148190      -1.44230031       1.73683383       0.00000000
Si      -2.79555526       2.32903899       0.53720012       0.00000000
Si      -2.78869717       1.79704831      -1.78023667       0.00000000
Si       2.90617998       1.31709930      -2.04085953       0.00000000
