10
Lattice="10.86 0.0 0.0 0.0 10.86 0.0 0.0 0.0 10.86" Properties=species:S:1:pos:R:3:initial_magmoms:R:1 pbc="T T T"
Si       1.38760392      -1.30196196      -1.29279612       0.00000000
Si      -1.32739608       1.41303804      -1.29279612       0.00000000
Si      -1.32739608      -1.30196196       1.42220388       0.00000000
Si       0.03010392      -2.65946196      -2.65029612       0.00000000
Si      -2.68489608       0.05553804      -2.65029612       0.00000000
Si      -2.68489608      -2.65946196       0.06470388       0.00000000
Si       2.74510392      -2.65946196       0.06470388       0.00000000
Si       0.03010392      -2.65946196       2.77970388       0.00000000
Si       2.72571882       0.05931732      -2.72686998       0.00000000
Si      -2.68489608       2.77053804       0.06470388       0.00000000
