10
Lattice="10.86 0.0 0.0 0.0 10.86 0.0 0.0 0.0 10.86" Properties=species:S:1:pos:R:3:initial_magmoms:R:1 pbc="T T T"
Si      -1.32026106       1.26656922      -1.29696636       0.00000000
Si       1.39473894      -1.44843078      -1.29696636       0.00000000
Si      -1.32026106      -1.44843078       1.41803364       0.00000000
Si       1.54386846       1.46258136       1.53481122       0.00000000
Si       0.03723894       2.62406922      -2.65446636       0.00000000
Si      -2.67776106       2.62406922       0.06053364       0.00000000
Si      -2.67776106      -0.09093078      -2.65446636       0.00000000
Si       2.75744088       2.62359138      -0.04180014       0.00000000
Si       2.75223894      -0.09093078      -2.65446636       0.00000000
Si      -2.67776106      -0.09093078       2.77553364       0.00000000
