10
Lattice="10.86 0.0 0.0 0.0 10.86 0.0 0.0 0.0 10.86" Properties=species:S:1:pos:R:3:initial_magmoms:R:1 pbc="T T T"
Si      -1.30628424      -1.29492468       1.41400458       0.00000000
Si      -1.30628424       1.42007532      -1.30099542       0.00000000
Si       1.40871576       1.42007532       1.41400458       0.00000000
Si       0.83194116      -1.59408510      -2.57622006       0.00000000
Si       2.66292630      -2.49638820       0.03201528       0.00000000
Si      -2.62403664      -2.66128644       0.06704964       0.00000000
Si       0.05121576      -2.65242468       2.77150458       0.00000000
Si      -2.66378424       0.06257532       2.77150458       0.00000000
Si       0.05121576       2.77757532      -2.65849542       0.00000000
Si      -2.66378424       2.77757532       0.05650458       0.00000000
