10
Lattice="10.86 0.0 0.0 0.0 10.86 0.0 0.0 0.0 10.86" Properties=species:S:1:pos:R:3:initial_magmoms:R:1 pbc="T T T"
Si      -1.33811490       1.35372072      -1.28092614       0.00000000
Si       1.37688510      -1.36127928      -1.28092614       0.00000000
Si      -1.33811490      -1.36127928       1.43407386       0.00000000
Si       2.59431282      -0.01239126       2.72205900       0.00000000
Si       2.65070880       2.66893188       0.08082012       0.00000000
Si      -2.69561490      -0.00377928      -2.63842614       0.00000000
Si       0.01938510       2.71122072      -2.63842614       0.00000000
Si       0.01938510      -2.71877928      -2.63842614       0.00000000
Si       2.73438510      -0.00377928      -2.63842614       0.00000000
Si      -2.69561490      -2.71877928       0.07657386       0.00000000
