10
Lattice="16.290000149 0.0 0.0 0.0 16.290000149 0.0 0.0 0.0 29.1751946751" Properties=species:S:1:pos:R:3:initial_magmoms:R:1 pbc="T T T"
Si      -1.39087605       1.44971390      -1.13943723       0.00000000
Si       1.54285849      -1.26175825      -1.19597876       0.00000000
Si       0.83903275       1.65590295       1.41216695       0.00000000
Si      -0.90420904      -1.73530856       1.27968239       0.00000000
H        0.23213250       2.96748417       0.97935293       0.00000000
Si       2.56497455      -2.09131022       0.76036392       0.00000000
Si       0.16325838      -2.65378763      -2.52432537       0.00000000
Si      -2.62459361       0.07668566      -2.56493724       0.00000000
Si       0.08501751       1.06979200       3.56585064       0.00000000
Si       0.02168199       2.74377360      -2.52566743       0.00000000
