10
Lattice="16.290000149 0.0 0.0 0.0 16.290000149 0.0 0.0 0.0 29.1751946751" Properties=species:S:1:pos:R:3:initial_magmoms:R:1 pbc="T T T"
Si       1.31228983       1.35980776       1.34523905       0.00000000
Si      -1.37521810       1.26438094      -1.41702170       0.00000000
Si       1.28721952      -1.44907696      -1.32804027       0.00000000
Si      -1.42723207      -1.39077505       1.28108280       0.00000000
Si      -2.18489627      -0.59505742      -2.59803737       0.00000000
Si      -0.55190521      -2.33044742      -2.51406154       0.00000000
Si       2.62094699       2.64958481      -0.12507406       0.00000000
Si       2.62909199      -0.03155373       2.68721048       0.00000000
Si      -0.10652031       2.69053787       2.64706541       0.00000000
Si       2.53674398      -2.81947323       0.08512738       0.00000000
