10
Lattice="16.290000149 0.0 0.0 0.0 16.290000149 0.0 0.0 0.0 29.1751946751" Properties=species:S:1:pos:R:3:initial_magmoms:R:1 pbc="T T T"
Si      -1.33840270       1.15377184       1.55689925       0.00000000
Si      -1.30868974      -1.44707329      -1.36909561       0.00000000
Si       1.42684111      -1.36752922       1.33456385       0.00000000
Si       0.83388511       1.99738208      -1.09327565       0.00000000
H        1.91358632       0.28429308      -1.87913636       0.00000000
Si      -0.91235404       3.53908398      -0.64005126       0.00000000
Si      -2.74483245       2.51771726       0.30283852       0.00000000
Si      -2.70720254      -0.02189376      -2.59305337       0.00000000
Si       0.08360028       2.61340472       2.78215532       0.00000000
Si      -2.63557541      -2.82965448       0.00647398       0.00000000
