10
Lattice="16.290000149 0.0 0.0 0.0 16.290000149 0.0 0.0 0.0 29.1751946751" Properties=species:S:1:pos:R:3:initial_magmoms:R:1 pbc="T T T"
Si      -1.50602680      -1.35567010       1.16231058       0.00000000
Si       1.39215970      -1.35127180      -1.31539283       0.00000000
Si       1.33703434       1.28935351       1.43078072       0.00000000
Si      -1.34065072       1.34728075      -1.38340021       0.00000000
H       -0.86884345      -2.19890567       2.24424350       0.00000000
Si      -0.00965997      -2.72127710      -2.62818906       0.00000000
Si       2.69053787       2.67563252       0.07722674       0.00000000
Si       2.74263330      -2.65867463       0.11474604       0.00000000
Si      -2.94156678      -0.13380606       2.44776966       0.00000000
Si       2.72979678      -0.00159642      -2.68779398       0.00000000
