10
Lattice="16.290000149 0.0 0.0 0.0 16.290000149 0.0 0.0 0.0 29.1751946751" Properties=species:S:1:pos:R:3:initial_magmoms:R:1 pbc="T T T"
Si       1.37815030      -1.34768800      -1.33917061       0.00000000
Si      -1.29937186       1.29556000      -1.46657869       0.00000000
Si       1.38986281       1.35801586       1.33091403       0.00000000
Si      -1.35019666      -1.39004200       1.34626018       0.00000000
Si      -2.79257844       0.04616586       2.46308664       0.00000000
Si      -2.66014073       2.66489741      -0.20256338       0.00000000
Si       2.70216893      -0.03909600       2.65161674       0.00000000
Si       0.01301571      -2.68762196      -2.71209692       0.00000000
Si      -2.71046054      -2.70063767      -0.04460887       0.00000000
Si       2.72321991       0.02171457      -2.70392787       0.00000000
