10
Lattice="16.290000149 0.0 0.0 0.0 16.290000149 0.0 0.0 0.0 29.1751946751" Properties=species:S:1:pos:R:3:initial_magmoms:R:1 pbc="T T T"
Si       1.74428435       0.32888370      -1.49289471       0.00000000
Si      -1.91371664       1.06676858      -0.77810244       0.00000000
Si       0.64485595       0.67847199       2.14484361       0.00000000
Si      -0.04419477      -2.14524804       0.97923623       0.00000000
Si       1.87369211      -1.97521302      -1.73224801       0.00000000
Si      -0.59710996      -1.10817776       2.98972807       0.00000000
H        1.32157513       2.99102159       0.01108657       0.00000000
Si      -0.75290752       2.50430896      -2.28301733       0.00000000
Si      -2.88942249       1.46314989       1.37485187       0.00000000
Si       2.14887908      -2.86362076       0.50995323       0.00000000
