10
Lattice="16.290000149 0.0 0.0 0.0 16.290000149 0.0 0.0 0.0 29.1751946751" Properties=species:S:1:pos:R:3:initial_magmoms:R:1 pbc="T T T"
Si      -1.39007458      -1.34491870      -1.27556285       0.00000000
Si       1.32974343      -1.40915017       1.31092902       0.00000000
Si      -1.42498405       1.36047565       1.27008375       0.00000000
Si       1.29541339       1.31421205      -1.46944369       0.00000000
Si       2.62665990       2.67462254      -0.09099743       0.00000000
Si       2.66493977      -0.03218904       2.65570127       0.00000000
Si      -0.06841800       2.70976007       2.62489226       0.00000000
Si      -0.13201416      -2.74603791      -2.64008087       0.00000000
Si      -2.74960542      -0.02668302       2.65281293       0.00000000
Si       2.68035174      -2.73543312      -0.09595722       0.00000000
