10
Lattice="16.290000149 0.0 0.0 0.0 16.290000149 0.0 0.0 0.0 29.1751946751" Properties=species:S:1:pos:R:3:initial_magmoms:R:1 pbc="T T T"
Si       1.27098230      -1.36119241      -1.42395373       0.00000000
Si       1.35850847       1.41138190       1.31285459       0.00000000
Si      -1.39068155       1.35480673      -1.35270790       0.00000000
Si      -1.29439136      -1.35860230       1.44711883       0.00000000
Si       2.62012826      -2.69667920      -0.04936443       0.00000000
Si      -0.07518259       2.65593791       2.68356358       0.00000000
Si      -2.72178633      -2.62806572       0.04157465       0.00000000
Si       2.61379145       0.00615762      -2.78763150       0.00000000
Si      -0.03483226       2.69622308      -2.75203776       0.00000000
Si      -2.77388175       2.70624143       0.00405535       0.00000000
