10
Lattice="16.290000149 0.0 0.0 0.0 16.290000149 0.0 0.0 0.0 29.1751946751" Properties=species:S:1:pos:R:3:initial_magmoms:R:1 pbc="T T T"
Si       1.41718114      -1.34279074       1.25431456       0.00000000
Si      -1.49767003       1.23597607       1.27998873       0.00000000
Si      -1.03910653      -1.85366681      -0.95282685       0.00000000
Si       0.86594383       1.72808068      -1.38180870       0.00000000
H       -2.05226309       0.77786868      -2.05534287       0.00000000
Si      -1.87304051      -0.60950827      -2.66621309       0.00000000
Si      -0.07807797       2.66503262       2.51588499       0.00000000
Si       2.64883547      -2.54353203      -0.34253429       0.00000000
Si      -0.83926081       3.39656766      -1.25473468       0.00000000
Si      -0.04315221      -2.77934607       2.46937972       0.00000000
