10
Lattice="16.290000149 0.0 0.0 0.0 16.290000149 0.0 0.0 0.0 29.1751946751" Properties=species:S:1:pos:R:3:initial_magmoms:R:1 pbc="T T T"
Si      -1.32724405       1.35886294       1.36618684       0.00000000
Si       1.37715661      -1.33981993       1.35912644       0.00000000
Si       1.41090949       1.40458897      -1.25759093       0.00000000
Si      -1.41959206      -1.42905655      -1.23589626       0.00000000
Si       0.07807797      -2.66503262      -2.51588499       0.00000000
Si       2.66896991       0.00346977      -2.62210895       0.00000000
Si      -2.66911652      -0.05866029      -2.64906391       0.00000000
Si       0.05137866       2.72282465       2.67078485       0.00000000
Si      -2.64404621       2.75022444       0.02421541       0.00000000
Si       0.09609471       2.66820428      -2.73039560       0.00000000
