10
Lattice="16.290000149 0.0 0.0 0.0 16.290000149 0.0 0.0 0.0 29.1751946751" Properties=species:S:1:pos:R:3:initial_magmoms:R:1 pbc="T T T"
Si       1.38320020      -1.35143470      -1.35676325       0.00000000
Si      -1.32970384       1.32019048      -1.43897895       0.00000000
Si      -1.35350353      -1.38627901       1.35355398       0.00000000
Si       1.40802616       1.36155079       1.32294920       0.00000000
H       -1.14310189       2.89683444       2.13506992       0.00000000
Si       0.04875597       2.40236777       2.93499541       0.00000000
Si      -2.69053787      -2.67563252      -0.07722674       0.00000000
Si       2.69869916      -0.05030352       2.67950823       0.00000000
Si       2.72266175       2.67113648      -0.13362239       0.00000000
Si       0.03925890      -2.67722894      -2.76502072       0.00000000
