10
Lattice="16.290000149 0.0 0.0 0.0 16.290000149 0.0 0.0 0.0 29.1751946751" Properties=species:S:1:pos:R:3:initial_magmoms:R:1 pbc="T T T"
Si       1.42527727       1.39048183       1.17937807       0.00000000
Si      -1.31266450       1.43884684      -1.28548825       0.00000000
Si       1.43531191      -1.32221044      -1.28026589       0.00000000
Si      -1.38013768      -1.34130232       1.34001669       0.00000000
Si       0.05704758      -2.66175344      -2.61316384       0.00000000
Si      -2.66818799       0.07750782      -2.62687618       0.00000000
Si      -2.55954998       0.10977831       2.75308807       0.00000000
Si       2.71184519       0.09415620       2.60756220       0.00000000
Si       0.01194057      -2.62400951       2.70191478       0.00000000
Si       0.07447788       2.80121214      -2.59393738       0.00000000
