10
Lattice="16.290000149 0.0 0.0 0.0 16.290000149 0.0 0.0 0.0 29.1751946751" Properties=species:S:1:pos:R:3:initial_magmoms:R:1 pbc="T T T"
Si       1.19185786      -0.49446666       0.79992549       0.00000000
H       -0.81524935       0.79938289      -1.62529174       0.00000000
H        0.64967779       1.69264505      -1.10290988       0.00000000
H       -0.53600616       0.16418691       2.31726901       0.00000000
Si      -1.85360654       0.63024382       1.72749245       0.00000000
Si      -1.62898372      -0.14043609      -2.45722242       0.00000000
Si       2.55112805      -1.53528364      -0.81212072       0.00000000
Si      -1.58897548       2.66398517       0.53081349       0.00000000
Si      -2.82530505      -1.36769212       0.85556258       0.00000000
Si       0.51701202      -2.34209477       2.23134806       0.00000000
