10
Lattice="16.290000149 0.0 0.0 0.0 16.290000149 0.0 0.0 0.0 29.1751946751" Properties=species:S:1:pos:R:3:initial_magmoms:R:1 pbc="T T T"
H        1.57618783      -1.60834429      -0.22526168       0.00000000
Si       1.37015426       1.27979992      -1.37505610       0.00000000
Si      -1.28327734       1.41194717       1.33199351       0.00000000
Si      -1.21101490      -1.51526323      -1.31060810       0.00000000
Si       1.22689765      -1.47232279       1.42850506       0.00000000
H       -1.87100426      -2.35071218      -0.25020647       0.00000000
Si      -2.53793315      -0.07405434       2.59519192       0.00000000
Si      -0.09244575       2.57634986      -2.65669323       0.00000000
Si       2.60387182       2.65282815       0.05044391       0.00000000
Si       2.75286342      -0.11406258      -2.67743679       0.00000000
