10
Lattice="16.290000149 0.0 0.0 0.0 16.290000149 0.0 0.0 0.0 29.1751946751" Properties=species:S:1:pos:R:3:initial_magmoms:R:1 pbc="T T T"
Si       0.17922258      -1.38737696      -0.61087023       0.00000000
Si      -0.69493141       1.82850365       1.92216394       0.00000000
Si      -0.51272775       1.28267461      -2.39417483       0.00000000
Si      -2.53405613       0.94713319       0.73614268       0.00000000
Si      -2.45167760       0.25451496      -1.49339069       0.00000000
Si       1.21300228       2.61869897       0.80060819       0.00000000
Si       2.05226309      -0.77786868       2.05534287       0.00000000
Si       1.01315656      -2.63153549       1.10251602       0.00000000
Si       2.91820692       0.95021200       0.67353417       0.00000000
Si       2.07472700      -1.36977724      -1.94977826       0.00000000
