10
Lattice="16.290000149 0.0 0.0 0.0 16.290000149 0.0 0.0 0.0 29.1751946751" Properties=species:S:1:pos:R:3:initial_magmoms:R:1 pbc="T T T"
Si       1.30675123      -1.42607548      -1.30113316       0.00000000
Si       1.41333670       1.29598354       1.34351947       0.00000000
Si      -1.29987685      -1.48421449       1.27382576       0.00000000
Si      -1.27897678       1.49521024      -1.33865246       0.00000000
Si       2.57139281       0.05815530      -2.62629968       0.00000000
Si      -2.68420106      -0.11297115       2.62496404       0.00000000
Si       0.03139083       2.65243556       2.66785157       0.00000000
Si      -2.63730215       0.15053589      -2.68144079       0.00000000
Si      -0.07198551      -2.45373014      -2.93403963       0.00000000
Si      -2.72455139       2.68882742       0.01836724       0.00000000
