10
Lattice="16.290000149 0.0 0.0 0.0 16.290000149 0.0 0.0 0.0 29.1751946751" Properties=species:S:1:pos:R:3:initial_magmoms:R:1 pbc="T T T"
Si       1.44345349      -1.35154873       1.28280413       0.00000000
Si      -1.25757172      -1.36689391      -1.45808870       0.00000000
Si       1.37611405       1.32649471      -1.39256122       0.00000000
Si      -1.43190730       1.28412442       1.40682789       0.00000000
Si       0.09405846      -2.75485080       2.59192430       0.00000000
Si      -0.03116277       2.69344238       2.67192268       0.00000000
Si      -2.69402393       2.67492391      -0.02406954       0.00000000
Si      -2.72137484      -0.31332186       2.68050019       0.00000000
Si      -2.59517621      -2.81730666      -0.20556842       0.00000000
Si       2.74541074       2.69997467      -0.06263914       0.00000000
