10
Lattice="16.290000149 0.0 0.0 0.0 16.290000149 0.0 0.0 0.0 29.1751946751" Properties=species:S:1:pos:R:3:initial_magmoms:R:1 pbc="T T T"
Si       1.18141597       0.53704872       1.05167824       0.00000000
Si      -1.29785689      -0.55006444      -0.91995224       0.00000000
Si      -0.06822252      -2.40119489      -1.58517585       0.00000000
Si      -0.35622972       1.80905339       2.24931998       0.00000000
Si       2.85199784       1.32072805      -0.39439028       0.00000000
Si      -3.08459298      -1.13862214       0.52028125       0.00000000
Si       2.32106438      -0.96541057       2.43366987       0.00000000
Si      -2.32354046       0.78480334      -2.53701658       0.00000000
Si      -1.82786834       3.01861848       0.79484900       0.00000000
H       -0.33650253       0.69480109      -3.59806006       0.00000000
