10
Lattice="16.290000149 0.0 0.0 0.0 16.290000149 0.0 0.0 0.0 29.1751946751" Properties=species:S:1:pos:R:3:initial_magmoms:R:1 pbc="T T T"
Si      -1.34609158      -1.33028377       1.34662487       0.00000000
Si       1.31512429      -1.32318458      -1.40087907       0.00000000
Si      -1.20311425       1.39716073      -1.44133922       0.00000000
Si       1.42873075       1.40390479       1.24238190       0.00000000
Si       2.30405762       0.46423242      -2.55276243       0.00000000
Si       0.67106656       2.19962243      -2.63673827       0.00000000
Si      -2.64754856      -2.65720853      -0.07906478       0.00000000
Si      -2.70225038       0.06488307       2.63576002       0.00000000
Si       2.69824304      -2.64714918      -0.03484102       0.00000000
Si       0.05075964       2.75266794       2.59272661       0.00000000
