10
Lattice="16.290000149 0.0 0.0 0.0 16.290000149 0.0 0.0 0.0 29.1751946751" Properties=species:S:1:pos:R:3:initial_magmoms:R:1 pbc="T T T"
Si      -1.32785167       1.35527914      -1.37021302       0.00000000
Si       1.31173597       1.42879591       1.32367858       0.00000000
Si      -1.34280915      -1.36735003       1.36367777       0.00000000
Si       1.37806885      -1.34591239      -1.35743428       0.00000000
Si       2.66517434       0.07016103       2.62734298       0.00000000
Si      -2.64862370       2.69006546       0.03559374       0.00000000
Si       2.68350059       2.68183901      -0.10946533       0.00000000
Si      -2.67224420      -0.00518022      -2.72122876       0.00000000
Si      -2.61379145      -0.00615762       2.78763150       0.00000000
Si       0.02231730      -2.71435385      -2.69427088       0.00000000
