10
Lattice="16.290000149 0.0 0.0 0.0 16.290000149 0.0 0.0 0.0 29.1751946751" Properties=species:S:1:pos:R:3:initial_magmoms:R:1 pbc="T T T"
Si      -1.03045654       1.48926439       1.46952538       0.00000000
Si       0.91471609       1.83441692      -1.17258025       0.00000000
Si      -1.33936381      -1.45694503      -1.29076896       0.00000000
Si       1.50443038      -1.30978117       1.29336556       0.00000000
H       -1.91726786       2.33621408       0.57930267       0.00000000
H        2.76644928      -1.01266786      -1.31218356       0.00000000
Si       2.31893039      -2.29631987      -0.64850623       0.00000000
Si       0.44054676      -3.00628695      -1.91964028       0.00000000
Si       0.86925070       2.79018381       2.09720052       0.00000000
Si       2.48137427       2.61247619       0.41609663       0.00000000
