10
Lattice="16.290000149 0.0 0.0 0.0 16.290000149 0.0 0.0 0.0 29.1751946751" Properties=species:S:1:pos:R:3:initial_magmoms:R:1 pbc="T T T"
Si      -1.37064061       1.36031927      -1.31378819       0.00000000
Si      -1.38709351      -1.35935164       1.30451048       0.00000000
Si       1.32405121      -1.35177679      -1.38453804       0.00000000
Si       1.35584929       1.37191775       1.33782855       0.00000000
Si      -0.00377928      -2.70511742       2.63982996       0.00000000
Si      -0.02454903       2.69060303      -2.66041306       0.00000000
Si       2.67369401       0.04345385      -2.69525408       0.00000000
Si      -2.70519887       0.01125639       2.69327892       0.00000000
Si       2.73818613       0.01273878       2.66036930       0.00000000
Si      -0.00389331       2.72935694       2.67740762       0.00000000
