10
Lattice="16.290000149 0.0 0.0 0.0 16.290000149 0.0 0.0 0.0 29.1751946751" Properties=species:S:1:pos:R:3:initial_magmoms:R:1 pbc="T T T"
Si       1.35974260      -1.35743920      -1.33957906       0.00000000
Si       1.37365426       1.34684092       1.34328431       0.00000000
Si      -1.34418565      -1.35530521       1.36566169       0.00000000
Si      -1.33012738       1.36932112      -1.37292631       0.00000000
Si       0.00265527       2.70329294       2.67600721       0.00000000
Si       2.70853832       0.01633887      -2.67638648       0.00000000
Si       0.04439025      -2.70392825       2.69923066       0.00000000
Si       0.00389331      -2.72935694      -2.67740762       0.00000000
Si      -2.68954418       2.72398124      -0.01884718       0.00000000
Si      -2.70130556      -2.71810055       0.01587131       0.00000000
