10
Lattice="16.290000149 0.0 0.0 0.0 16.290000149 0.0 0.0 0.0 29.1751946751" Properties=species:S:1:pos:R:3:initial_magmoms:R:1 pbc="T T T"
Si       1.35993808      -1.35208630      -1.35320388       0.00000000
Si       1.37383345       1.36523233       1.33149753       0.00000000
Si      -1.35485560       1.35031069      -1.36971704       0.00000000
Si      -1.35371530      -1.34811154       1.37336394       0.00000000
Si       0.00487071       2.72575685       2.65593467       0.00000000
Si       2.68392413      -2.71718831       0.03877383       0.00000000
Si      -2.72253143       0.03953583       2.68470141       0.00000000
Si      -2.71384886      -2.69415425       0.00557246       0.00000000
Si       0.00016290      -2.69619050      -2.71650238       0.00000000
Si       2.71533125       0.02520063      -2.70982126       0.00000000
