10
Lattice="16.290000149 0.0 0.0 0.0 16.290000149 0.0 0.0 0.0 29.1751946751" Properties=species:S:1:pos:R:3:initial_magmoms:R:1 pbc="T T T"
Si       1.11655082      -1.25291278       0.07454262       0.00000000
Si      -0.34929018       0.13602150       1.65376673       0.00000000
Si      -1.57618783       1.60834429       0.22526168       0.00000000
Si       2.58181841       0.15767091      -1.10918255       0.00000000
Si      -0.23110623      -2.66071088      -1.19072722       0.00000000
Si      -2.78720274       0.09308106      -1.08534642       0.00000000
Si       1.17667558       1.49428171      -2.45217511       0.00000000
Si      -0.20603358       2.88814421      -1.14979442       0.00000000
Si      -1.54341235      -1.26359902      -2.51142993       0.00000000
Si       1.51435099       1.07614999       2.69482521       0.00000000
