10
Lattice="16.290000149 0.0 0.0 0.0 16.290000149 0.0 0.0 0.0 29.1751946751" Properties=species:S:1:pos:R:3:initial_magmoms:R:1 pbc="T T T"
Si       1.34664381       1.34786719      -1.36840416       0.00000000
Si       1.35122130      -1.35904213       1.35965160       0.00000000
Si      -1.33004078       1.34946361       1.39139421       0.00000000
Si      -1.36450091      -1.32993190      -1.37905310       0.00000000
Si       2.67753683       2.69335604       0.04641773       0.00000000
Si      -2.70505389      -2.68315850       0.00668112       0.00000000
Si      -2.69865192       2.70607853       0.05053144       0.00000000
Si       2.69255621       0.00363267       2.72411710       0.00000000
Si       2.69829029      -0.02143764      -2.72715132       0.00000000
Si      -2.67700251      -0.00413766       2.74958705       0.00000000
