10
Lattice="16.290000149 0.0 0.0 0.0 16.290000149 0.0 0.0 0.0 29.1751946751" Properties=species:S:1:pos:R:3:initial_magmoms:R:1 pbc="T T T"
H        1.19619100       0.36629694       0.89004766       0.00000000
Si       0.84615148       1.49040469      -1.63214792       0.00000000
Si      -0.77176156      -2.11631537       1.17812354       0.00000000
Si       0.54147961      -2.38296638      -0.73366862       0.00000000
Si      -2.19524042       1.41959206       1.04683516       0.00000000
H        2.59792922      -1.66566881       1.34838997       0.00000000
Si      -3.41658318      -0.16962777      -0.36611952       0.00000000
H       -1.88519773      -1.57216420      -2.46938848       0.00000000
Si      -0.25679556      -1.20629080       3.27132705       0.00000000
Si       1.27576765       3.30307446      -0.14654700       0.00000000
