10
Lattice="16.290000149 0.0 0.0 0.0 16.290000149 0.0 0.0 0.0 29.1751946751" Properties=species:S:1:pos:R:3:initial_magmoms:R:1 pbc="T T T"
Si       1.30240180      -1.38082186       1.37762352       0.00000000
Si      -1.37316556      -1.38217393      -1.31110407       0.00000000
Si      -1.32299236       1.37394748       1.37088405       0.00000000
Si       1.35317773       1.34591239      -1.37701084       0.00000000
Si      -2.68325624       2.70024671      -0.01838037       0.00000000
Si       2.68261279      -0.01625742       2.70789569       0.00000000
Si      -0.00219915      -2.72312276      -2.67571545       0.00000000
Si      -2.69715161      -0.01707192      -2.70308179       0.00000000
Si       2.69757027       2.70637175      -0.02599510       0.00000000
Si      -2.66062943       0.02427210       2.74328520       0.00000000
