10
Lattice="16.290000149 0.0 0.0 0.0 16.290000149 0.0 0.0 0.0 29.1751946751" Properties=species:S:1:pos:R:3:initial_magmoms:R:1 pbc="T T T"
H        1.34886088       0.59030074       0.28655876       0.00000000
Si      -0.44888724       0.42083586      -2.21544758       0.00000000
Si      -1.36508572       1.34874685       1.31930230       0.00000000
Si      -0.45475164      -2.21021093       0.60734003       0.00000000
H        2.28628523      -1.19653309      -0.16924530       0.00000000
H        2.95313268      -0.27339507       1.44446389       0.00000000
Si       0.61923178      -2.12612195       2.70818745       0.00000000
Si       1.37481085       1.71541847      -2.85307146       0.00000000
Si      -2.76535133      -2.03615228       1.20858244       0.00000000
Si       0.17718633       2.65908188       2.51105066       0.00000000
