10
Lattice="16.290000149 0.0 0.0 0.0 16.290000149 0.0 0.0 0.0 29.1751946751" Properties=species:S:1:pos:R:3:initial_magmoms:R:1 pbc="T T T"
H        0.64469305      -0.43078905       0.04991876       0.00000000
H       -1.15093738      -1.63540199       1.12610416       0.00000000
Si      -1.87199795      -1.71416414      -0.19774947       0.00000000
Si       0.85211362       1.74004895       1.75952682       0.00000000
Si      -0.08503380       0.81995716      -2.57246444       0.00000000
Si      -2.21117204       0.23498325      -1.57260134       0.00000000
Si       2.63202419       0.19070703       1.13065549       0.00000000
Si       1.39735621      -0.98451874      -2.45646387       0.00000000
Si      -0.26536410      -2.50315400      -1.72264937       0.00000000
Si      -0.36636210       3.06447483       0.24122051       0.00000000
