10
Lattice="16.290000149 0.0 0.0 0.0 16.290000149 0.0 0.0 0.0 29.1751946751" Properties=species:S:1:pos:R:3:initial_magmoms:R:1 pbc="T T T"
Si       1.36777357      -1.35873262       1.32586672       0.00000000
Si       1.36829485       1.34395759      -1.34237988       0.00000000
Si      -1.34133490      -1.36267480      -1.36446550       0.00000000
Si      -1.31709538       1.36388026       1.39089823       0.00000000
Si      -0.01501938       2.68972337      -2.67769937       0.00000000
Si      -0.00723276      -2.69107544       2.68052936       0.00000000
Si       2.72329706       0.00260640       2.66725465       0.00000000
Si      -2.69968308      -2.71557560      -0.00259659       0.00000000
Si       2.71785620      -0.02124216      -2.69815118       0.00000000
Si      -2.69255621      -0.00363267      -2.72411710       0.00000000
