10
Lattice="16.290000149 0.0 0.0 0.0 16.290000149 0.0 0.0 0.0 29.1751946751" Properties=species:S:1:pos:R:3:initial_magmoms:R:1 pbc="T T T"
Si       0.45475164       2.21021093      -0.60734003       0.00000000
Si       1.07398342       0.08408898       2.10084742       0.00000000
Si      -0.42961617      -1.81266977      -1.48560091       0.00000000
Si      -2.31059969       0.17405865       0.60124241       0.00000000
H        2.74103687       1.01367784      -0.77658533       0.00000000
H       -0.07957665      -2.93677752       1.03659467       0.00000000
H        1.80361253       2.80051167      -0.32078127       0.00000000
Si      -1.27576765      -3.30307446       0.14654700       0.00000000
Si      -2.08516074       2.02981547       2.03307344       0.00000000
Si      -1.99696994      -0.73189342      -2.84644869       0.00000000
