10
Lattice="16.290000149 0.0 0.0 0.0 16.290000149 0.0 0.0 0.0 29.1751946751" Properties=species:S:1:pos:R:3:initial_magmoms:R:1 pbc="T T T"
Si      -1.37632582      -0.98670160       1.63252719       0.00000000
Si      -1.35047359       1.30740283      -1.43013887       0.00000000
Si       1.23303898      -1.43915147      -1.41184602       0.00000000
Si       1.42739497       1.26946342       1.40554418       0.00000000
Si       0.04220739      -2.60355416       2.57684072       0.00000000
Si      -0.06258618       2.53610867       2.68980707       0.00000000
Si       2.72178633       2.62806572      -0.04157465       0.00000000
Si      -1.46116414       0.72301537       3.44783698       0.00000000
Si      -2.74263330       2.65867463      -0.11474604       0.00000000
Si       2.61255764      -0.09769113      -2.79580056       0.00000000
