10
Lattice="16.290000149 0.0 0.0 0.0 16.290000149 0.0 0.0 0.0 29.1751946751" Properties=species:S:1:pos:R:3:initial_magmoms:R:1 pbc="T T T"
Si      -1.46584752       1.20818044       1.33867463       0.00000000
Si       1.17482667       1.52914231      -1.32111117       0.00000000
Si      -0.22543894      -1.85575682      -1.43183103       0.00000000
Si       1.43758437      -1.18684054       1.44560172       0.00000000
H       -2.94802576      -1.26267049      -1.42488733       0.00000000
Si       2.08516074      -2.02981547      -2.03307344       0.00000000
Si      -2.61720844      -0.43052841       2.52102857       0.00000000
Si       2.53991239       0.18039546      -2.64041347       0.00000000
Si       3.15914416      -1.94572649       0.06777398       0.00000000
Si      -0.00701610       2.59336802       2.68776481       0.00000000
