10
Lattice="16.290000149 0.0 0.0 0.0 16.290000149 0.0 0.0 0.0 29.1751946751" Properties=species:S:1:pos:R:3:initial_magmoms:R:1 pbc="T T T"
Si      -1.21847572       1.32442588      -1.51830631       0.00000000
Si       1.33936381       1.45694503       1.29076896       0.00000000
Si      -1.62018712      -1.02752434       1.39232782       0.00000000
Si       1.77991058      -1.54934191      -0.62887132       0.00000000
H       -0.85211362      -1.74004895      -1.75952682       0.00000000
H       -0.20742057      -2.17083800      -1.70960806       0.00000000
H        1.35215146       0.61178725      -2.87028483       0.00000000
Si      -0.05305653      -2.30803238       2.51688569       0.00000000
Si       0.03455109       1.07784415      -3.46006139       0.00000000
Si       1.01701729      -3.41845653       0.65072354       0.00000000
