10
Lattice="16.290000149 0.0 0.0 0.0 16.290000149 0.0 0.0 0.0 29.1751946751" Properties=species:S:1:pos:R:3:initial_magmoms:R:1 pbc="T T T"
Si       1.31230612      -1.39711186       1.32070271       0.00000000
Si      -1.24379038       1.35668008       1.42608352       0.00000000
Si       1.34939503       1.40330206      -1.30912016       0.00000000
Si      -1.38986281      -1.35801586      -1.33091403       0.00000000
H       -1.90377974       0.52123113       2.48648514       0.00000000
H        1.54341235       1.26359902       2.51142993       0.00000000
Si       2.65996317       0.01068624       2.58597256       0.00000000
Si      -2.81543331       2.44152893       0.08857589       0.00000000
Si      -0.09405846       2.75485080      -2.59192430       0.00000000
Si       2.68534625       0.04048065      -2.68569337       0.00000000
