10
Lattice="16.290000149 0.0 0.0 0.0 16.290000149 0.0 0.0 0.0 29.1751946751" Properties=species:S:1:pos:R:3:initial_magmoms:R:1 pbc="T T T"
Si      -1.36929669      -1.37347996      -1.32992207       0.00000000
Si       1.34828259       1.35248867      -1.37706919       0.00000000
Si       1.39928658      -1.34026465       1.33782855       0.00000000
Si      -1.39705485       1.33492805       1.35060729       0.00000000
Si      -0.01684386       2.69949249       2.68087946       0.00000000
Si      -2.70165580      -0.00737285      -2.70273168       0.00000000
Si       0.06873566      -2.69694473       2.71381826       0.00000000
Si      -2.69945665       2.71574991      -0.02701623       0.00000000
Si      -0.00006190      -2.71259942      -2.71154259       0.00000000
Si       2.70403414       2.72093013      -0.04023259       0.00000000
