10
Lattice="16.290000149 0.0 0.0 0.0 16.290000149 0.0 0.0 0.0 29.1751946751" Properties=species:S:1:pos:R:3:initial_magmoms:R:1 pbc="T T T"
Si      -1.41900562      -1.32240592       1.23746588       0.00000000
Si       1.36076887      -1.36933741      -1.26401531       0.00000000
Si       1.23457024       1.13464738       1.62205330       0.00000000
Si      -1.39489642       1.45187884      -1.19446165       0.00000000
Si      -0.36761643       1.07409745       3.41148469       0.00000000
Si       2.69837336       0.08107533      -2.51653559       0.00000000
Si      -2.49779459       0.09969480       2.73674996       0.00000000
Si      -0.06079428      -2.67812489      -2.57716165       0.00000000
Si       2.52403778       2.73209366       0.34838100       0.00000000
Si      -0.13243770      -2.61873155       2.66565001       0.00000000
