10
Lattice="16.290000149 0.0 0.0 0.0 16.290000149 0.0 0.0 0.0 29.1751946751" Properties=species:S:1:pos:R:3:initial_magmoms:R:1 pbc="T T T"
Si      -0.44751888      -1.28365201       0.66367733       0.00000000
H        0.52636248      -1.54411282      -1.80331878       0.00000000
Si       1.55274652      -0.43386786      -2.02467098       0.00000000
Si       2.72258682      -0.59308633      -0.00694370       0.00000000
Si      -1.26201889      -0.29711331       2.60554911       0.00000000
Si      -2.32590251      -1.99361909      -0.60745673       0.00000000
Si       1.56217843      -2.65062737       0.58519605       0.00000000
Si      -2.76644928       1.01266786       1.31218356       0.00000000
Si       0.24439887       1.16926363      -3.16717161       0.00000000
Si      -1.85173319       2.84708478       0.13960331       0.00000000
