10
Lattice="16.290000149 0.0 0.0 0.0 16.290000149 0.0 0.0 0.0 29.1751946751" Properties=species:S:1:pos:R:3:initial_magmoms:R:1 pbc="T T T"
Si       1.35343837      -1.35863488       1.30366440       0.00000000
Si       1.37176462       1.25304310      -1.43314391       0.00000000
Si      -1.31173597      -1.42879591      -1.32367858       0.00000000
Si      -1.19905804       1.40162419       1.47585640       0.00000000
Si      -2.56586073       2.63191016       0.02156047       0.00000000
Si       2.72652248       2.59222772      -0.12168974       0.00000000
Si      -2.63958764      -0.07351677      -2.69389160       0.00000000
Si       2.73802323      -0.00431685       2.59635892       0.00000000
Si      -2.56701895      -0.02357163       2.77680750       0.00000000
Si       0.00757485      -2.66584223       2.69753850       0.00000000
