10
Lattice="16.290000149 0.0 0.0 0.0 16.290000149 0.0 0.0 0.0 29.1751946751" Properties=species:S:1:pos:R:3:initial_magmoms:R:1 pbc="T T T"
Si      -1.34588633       1.36019384      -1.35623810       0.00000000
Si       1.35711991       1.36279535       1.34979038       0.00000000
Si      -1.37533702      -1.34833960       1.35095739       0.00000000
Si       1.31810536      -1.37060803      -1.38876844       0.00000000
Si       0.01602936      -2.69645114       2.67982916       0.00000000
Si      -2.66012102      -0.02345760      -2.71982835       0.00000000
Si       2.70519887      -0.01125639      -2.69327892       0.00000000
Si      -0.02699253       2.71674848       2.68543079       0.00000000
Si      -2.68947225      -2.71450046      -0.04379197       0.00000000
Si       2.70141959      -2.71637381      -0.05344896       0.00000000
