10
Lattice="10.86 0.0 0.0 0.0 10.86 0.0 0.0 0.0 10.86" Properties=species:S:1:pos:R:3:initial_magmoms:R:1 pbc="T T T"
Si      -1.24501212       1.26963174      -1.28803944       0.00000000
Si      -1.24501212      -1.44536826       1.42696056       0.00000000
Si       1.46998788      -1.44536826      -1.28803944       0.00000000
Si      -2.60251212      -0.08786826      -2.64553944       0.00000000
Si       0.11248788       2.62713174      -2.64553944       0.00000000
Si      -2.84590644       2.41708848      -0.09807666       0.00000000
Si      -2.60251212      -2.80286826       0.06946056       0.00000000
Si      -2.70308658      -0.38509560       2.70892926       0.00000000
Si       0.11248788      -2.80286826      -2.64553944       0.00000000
Si       2.82748788      -0.08786826      -2.64553944       0.00000000
