10
Lattice="16.28999089631971 0.0 0.0 0.0 16.28999089631971 0.0 0.0 0.0 34.25627252547053" Properties=species:S:1:pos:R:3:initial_magmoms:R:1 pbc="T T T"
Si      -1.54796214       1.72142946       0.55464362       0.00000000
Si       1.65361419       1.40592474       0.98435454       0.00000000
Si       0.75220704      -0.45458874      -2.24094383       0.00000000
Si      -0.63752544      -1.89123642       1.35702874       0.00000000
Si       1.04216904       1.64506194       3.20690274       0.00000000
Si      -1.20874244       2.13788331       2.84697189       0.00000000
Si      -0.69709797       3.74033780      -0.34163800       0.00000000
Si       1.17305919      -2.34898542       2.78003509       0.00000000
Si       3.01571883      -1.17097407      -2.04444974       0.00000000
Si       0.55226358       1.58153094      -3.54758157       0.00000000
