10
Lattice="16.28999089631971 0.0 0.0 0.0 16.28999089631971 0.0 0.0 0.0 34.25627252547053" Properties=species:S:1:pos:R:3:initial_magmoms:R:1 pbc="T T T"
Si      -1.83471012      -0.45853092       1.29464803       0.00000000
Si      -0.45274797      -1.88802729      -1.29985499       0.00000000
Si       1.91365146      -0.77511078       1.12394893       0.00000000
Si      -0.58363812       2.10602007      -0.87298734       0.00000000
Si      -1.09617039      -2.96965071       0.74757505       0.00000000
Si       2.91432987      -0.19381842      -1.70818998       0.00000000
Si      -0.85703319       0.11365533       3.35655962       0.00000000
Si       2.64644082       1.58179158       1.66382809       0.00000000
Si       1.69707591      -2.11265010      -2.36207408       0.00000000
Si      -3.50311237       0.82210743       0.15600315       0.00000000
