10
Lattice="16.28999089631971 0.0 0.0 0.0 16.28999089631971 0.0 0.0 0.0 34.25627252547053" Properties=species:S:1:pos:R:3:initial_magmoms:R:1 pbc="T T T"
Si      -1.05368607       1.55233926      -1.41301037       0.00000000
Si      -1.37842722      -1.33768919       1.37040925       0.00000000
Si       1.34254035       1.37490858       1.37064904       0.00000000
Si       1.35617508      -1.44899224      -1.34317549       0.00000000
Si       2.36130066       0.13514184      -2.95555889       0.00000000
Si      -0.01238040      -2.70015208       2.72966464       0.00000000
Si       2.70111006       0.01586646       2.73000721       0.00000000
Si       2.69288361       2.73887028      -0.00988979       0.00000000
Si      -2.70964602       2.72248254      -0.00484727       0.00000000
Si      -2.74028751      -2.69167999      -0.01336681       0.00000000
