10
Lattice="16.28999089631971 0.0 0.0 0.0 16.28999089631971 0.0 0.0 0.0 34.25627252547053" Properties=species:S:1:pos:R:3:initial_magmoms:R:1 pbc="T T T"
Si       1.29630819      -1.32313570      -1.38412546       0.00000000
Si       1.20276449       1.32789564       1.57849566       0.00000000
Si      -1.44430579       1.38256488      -1.34534734       0.00000000
Si      -0.76561552      -1.98735556       1.12836799       0.00000000
Si      -0.93239254       1.33589403       2.91068859       0.00000000
Si      -0.70386013      -1.13563617       3.33762475       0.00000000
Si       2.50350145       2.72380203       0.06710808       0.00000000
Si       2.71848058      -2.62499129      -0.03720233       0.00000000
Si       2.63364226       0.03007134      -2.73142542       0.00000000
Si      -0.08368354      -2.68592641      -2.72652677       0.00000000
