10
Lattice="16.28999089631971 0.0 0.0 0.0 16.28999089631971 0.0 0.0 0.0 34.25627252547053" Properties=species:S:1:pos:R:3:initial_magmoms:R:1 pbc="T T T"
Si      -1.40564781       1.15470036       1.44489613       0.00000000
Si       1.51804881      -1.61806811       0.77874828       0.00000000
Si       1.87774830       1.55497824      -0.31676793       0.00000000
Si      -1.69982892      -1.07954970      -1.72172122       0.00000000
Si       0.19184733       2.38729950      -1.93541197       0.00000000
Si      -0.07939746      -2.78165501      -1.97340219       0.00000000
Si      -1.38631158       3.11497380      -0.23677949       0.00000000
Si      -0.09490554      -3.20374520       1.32852750       0.00000000
Si      -1.07678529       0.79262253      -3.21512425       0.00000000
Si      -2.03522373      -0.71847860       2.85916713       0.00000000
