10
Lattice="16.28999089631971 0.0 0.0 0.0 16.28999089631971 0.0 0.0 0.0 34.25627252547053" Properties=species:S:1:pos:R:3:initial_magmoms:R:1 pbc="T T T"
Si       1.00841616      -0.78273450      -1.95192350       0.00000000
Si      -0.72259182      -2.16493123       0.54861451       0.00000000
Si      -2.00541303       1.18117161      -0.37753859       0.00000000
Si       1.46898333       1.49020920       1.15265570       0.00000000
Si       0.73625913       3.35844414      -0.12308286       0.00000000
Si       2.56248216      -2.36511904      -1.24042032       0.00000000
Si       1.32160770       1.03744494      -3.38236347       0.00000000
Si      -0.55294776      -2.26744745      -2.99273241       0.00000000
Si       1.11912300      -3.65227406       0.16042221       0.00000000
Si      -1.58400702       3.50000424       0.16511533       0.00000000
