10
Lattice="16.28999089631971 0.0 0.0 0.0 16.28999089631971 0.0 0.0 0.0 34.25627252547053" Properties=species:S:1:pos:R:3:initial_magmoms:R:1 pbc="T T T"
Si       1.32682050       1.23281091      -1.48504450       0.00000000
Si      -1.26863262      -1.59467697      -1.27971229       0.00000000
Si      -1.57815891       0.72767430       1.69863248       0.00000000
Si       1.68590097      -0.83232126       1.61864404       0.00000000
Si      -0.19184733      -2.38729950       1.93541197       0.00000000
Si       3.13950654       2.03927994      -0.20084464       0.00000000
Si       0.02824686       2.63816550      -2.82727452       0.00000000
Si      -2.67657732      -0.10502163      -2.80127399       0.00000000
Si      -1.59749514      -1.23259914       3.38030809       0.00000000
Si       2.74093911      -0.09767484      -2.83878463       0.00000000
