10
Lattice="16.28999089631971 0.0 0.0 0.0 16.28999089631971 0.0 0.0 0.0 34.25627252547053" Properties=species:S:1:pos:R:3:initial_magmoms:R:1 pbc="T T T"
Si       1.69324776       1.69295454       0.39172070       0.00000000
Si       0.17941806       0.13895370      -2.48628739       0.00000000
Si      -1.96838586       0.85491549       1.41975201       0.00000000
Si       0.51030054      -2.15840871       1.42170462       0.00000000
Si      -0.48215142       1.98149931       2.89127353       0.00000000
Si      -3.18142071      -1.46504115       0.75216540       0.00000000
Si       2.59027290      -0.03065778      -2.48063510       0.00000000
Si       3.31793091       0.33251148       1.53564104       0.00000000
Si       2.08292085      -1.04378175       2.99186028       0.00000000
Si       0.67041495       3.54162519       1.48418809       0.00000000
