10
Lattice="16.28999089631971 0.0 0.0 0.0 16.28999089631971 0.0 0.0 0.0 34.25627252547053" Properties=species:S:1:pos:R:3:initial_magmoms:R:1 pbc="T T T"
Si      -1.36254447       1.31885469      -1.33320691       0.00000000
Si       1.32610374      -1.35703845      -1.35744666       0.00000000
Si      -1.36132272      -1.34939844       1.34988288       0.00000000
Si       1.35400851       1.36593279       1.34751919       0.00000000
Si       0.10318086       2.49215823      -2.75636541       0.00000000
Si      -0.18125883      -2.31611220      -2.91668485       0.00000000
Si      -0.00298107      -2.70842427       2.70787079       0.00000000
Si      -2.71503801      -2.70133812      -0.01825175       0.00000000
Si       2.71251306       0.00724905       2.70653479       0.00000000
Si      -2.71731861       0.00798210       2.70704864       0.00000000
