10
Lattice="16.28999089631971 0.0 0.0 0.0 16.28999089631971 0.0 0.0 0.0 34.25627252547053" Properties=species:S:1:pos:R:3:initial_magmoms:R:1 pbc="T T T"
Si       1.36132272       1.34939844      -1.34988288       0.00000000
Si      -1.35599589       1.35738054       1.35716576       0.00000000
Si      -1.35371529      -1.35193968      -1.36813463       0.00000000
Si       1.35834165      -1.35902583       1.35798791       0.00000000
Si      -0.00122175       2.66825313      -2.68308979       0.00000000
Si       2.68742646      -0.00764001      -2.70732954       0.00000000
Si       0.02749752      -2.52683964      -2.85948229       0.00000000
Si      -2.71130760       2.71611315      -0.00459034       0.00000000
Si      -2.71376739      -0.00008145       2.71460558       0.00000000
Si       0.00127062      -2.71466334       2.71450281       0.00000000
