10
Lattice="16.28999089631971 0.0 0.0 0.0 16.28999089631971 0.0 0.0 0.0 34.25627252547053" Properties=species:S:1:pos:R:3:initial_magmoms:R:1 pbc="T T T"
Si       1.46497599       0.82005489       1.62631745       0.00000000
Si      -1.37482713       1.27736406      -1.42232123       0.00000000
Si       1.33353198      -1.44417366      -1.42845311       0.00000000
Si      -1.86002478      -1.04966244       1.27916419       0.00000000
Si       2.62868472       2.52685593      -0.03305732       0.00000000
Si      -2.69218314       2.59108740       0.14805569       0.00000000
Si      -0.01783755       2.61542466      -2.79938990       0.00000000
Si       2.63210562      -2.84952825      -0.08622309       0.00000000
Si       2.70606222      -0.10288764      -2.79901308       0.00000000
Si      -1.18496718      -1.14808662       3.53274859       0.00000000
