10
Lattice="16.28999089631971 0.0 0.0 0.0 16.28999089631971 0.0 0.0 0.0 34.25627252547053" Properties=species:S:1:pos:R:3:initial_magmoms:R:1 pbc="T T T"
Si       2.17023525       0.67399875       0.52093543       0.00000000
Si      -0.57940272      -2.10333222       0.85983292       0.00000000
Si      -1.59526341       1.45479474       0.91834267       0.00000000
Si      -0.03161889      -0.65138823      -2.25402974       0.00000000
Si       3.28971663      -1.22609943      -0.34393317       0.00000000
Si      -2.91983589      -1.97742681       0.19803562       0.00000000
Si       2.31453207      -0.83551410      -2.56028098       0.00000000
Si      -3.22080993      -0.18350685       1.64978301       0.00000000
Si      -0.16982325      -1.71579312       3.20522419       0.00000000
Si      -1.55641176       3.36465063      -0.56026165       0.00000000
