10
Lattice="16.28999089631971 0.0 0.0 0.0 16.28999089631971 0.0 0.0 0.0 34.25627252547053" Properties=species:S:1:pos:R:3:initial_magmoms:R:1 pbc="T T T"
Si       1.59526341      -1.45479474      -0.91834267       0.00000000
Si       0.34601589       0.50722173       2.28366143       0.00000000
Si       0.03885165       1.90985589      -1.47860432       0.00000000
Si      -1.62554652      -1.63830159       0.73144034       0.00000000
Si       1.01586069      -3.55812696      -0.05850975       0.00000000
Si      -1.32457248      -3.43222155      -0.72030704       0.00000000
Si       1.98858546      -0.99434160       3.05244113       0.00000000
Si      -2.22466014       2.62624122      -1.67509841       0.00000000
Si       3.76549866      -0.78079599      -0.39740724       0.00000000
Si      -1.80380799       0.73184454       3.34588052       0.00000000
