10
Lattice="16.28999089631971 0.0 0.0 0.0 16.28999089631971 0.0 0.0 0.0 34.25627252547053" Properties=species:S:1:pos:R:3:initial_magmoms:R:1 pbc="T T T"
Si      -1.34747622      -1.34957763      -1.36026596       0.00000000
Si      -1.35408996       1.35841086       1.35391142       0.00000000
Si       1.35778779      -1.35542574       1.35476782       0.00000000
Si       1.38758220       1.33568226      -1.35025284       0.00000000
Si       0.01446552       2.60957070      -2.71892872       0.00000000
Si      -2.71166598      -2.71342530      -0.00685126       0.00000000
Si      -2.71376739       0.00076563       2.71213912       0.00000000
Si       0.00125433      -2.71427238       2.71227615       0.00000000
Si       0.00118917       2.71590531       2.71213912       0.00000000
Si       2.71595025       0.00084708       2.71244743       0.00000000
