10
Lattice="16.28999089631971 0.0 0.0 0.0 16.28999089631971 0.0 0.0 0.0 34.25627252547053" Properties=species:S:1:pos:R:3:initial_magmoms:R:1 pbc="T T T"
Si      -2.17668609      -0.08684199       0.90645573       0.00000000
Si       1.14572457      -1.64893896       1.26556444       0.00000000
Si       1.49625279       1.83413997       0.42443545       0.00000000
Si      -0.23664483      -0.87807987      -2.38629328       0.00000000
Si       3.56773806       0.76160637      -0.11123018       0.00000000
Si      -0.02340873      -1.57068180       3.30888372       0.00000000
Si      -3.52004094      -1.27835775      -0.62462922       0.00000000
Si      -2.11439313      -2.43305811      -2.06952535       0.00000000
Si       3.38581134      -0.97697646       1.51697136       0.00000000
Si       1.69318260       2.05480431       2.78209047       0.00000000
