10
Lattice="16.28999089631971 0.0 0.0 0.0 16.28999089631971 0.0 0.0 0.0 34.25627252547053" Properties=species:S:1:pos:R:3:initial_magmoms:R:1 pbc="T T T"
Si       1.13780763      -1.61802054      -1.20434845       0.00000000
Si       0.33316308       1.76725323      -1.50224116       0.00000000
Si      -2.34615096       0.18412587       0.30625125       0.00000000
Si       0.97518456      -0.39058533       2.21634781       0.00000000
Si      -0.14429682       1.50951285       3.08121641       0.00000000
Si       3.33094662      -0.66487635      -0.75631041       0.00000000
Si       0.65625894      -3.44523726       0.14127295       0.00000000
Si      -2.31453207       0.83551410       2.56028098       0.00000000
Si       2.63298528       1.21487562      -2.08011054       0.00000000
Si       0.37126539      -2.71873584       2.31966479       0.00000000
