10
Lattice="16.28999089631971 0.0 0.0 0.0 16.28999089631971 0.0 0.0 0.0 34.25627252547053" Properties=species:S:1:pos:R:3:initial_magmoms:R:1 pbc="T T T"
Si       0.28499355      -0.72650142      -2.17839184       0.00000000
Si      -2.27027214      -0.48254238       0.18655976       0.00000000
Si       1.35971001      -1.82946474       0.70561110       0.00000000
Si       0.60391917       2.32815051      -0.10331698       0.00000000
Si      -0.37126539       2.71873584      -2.31966479       0.00000000
Si       1.39362579      -1.56094038       3.07183019       0.00000000
Si      -3.26520018       1.45091772       1.10044911       0.00000000
Si       2.87609724       2.32288884       0.67926801       0.00000000
Si       0.76654224       1.10071530      -3.52401324       0.00000000
Si       2.30560515      -1.82410533      -2.41496579       0.00000000
