10
Lattice="16.28999089631971 0.0 0.0 0.0 16.28999089631971 0.0 0.0 0.0 34.25627252547053" Properties=species:S:1:pos:R:3:initial_magmoms:R:1 pbc="T T T"
Si       1.35184194       1.35607734      -1.33660514       0.00000000
Si       1.35444834      -1.35630540       1.35737130       0.00000000
Si      -1.35987291       1.35645201       1.35672043       0.00000000
Si      -1.36668213      -1.37883447      -1.36429107       0.00000000
Si       2.59050096      -0.03893310      -2.70929585       0.00000000
Si      -0.02710656       2.68579746      -2.65331765       0.00000000
Si       2.71098180       2.71529865       0.00243220       0.00000000
Si       2.71244790       0.00034209       2.71532496       0.00000000
Si      -0.00234576      -2.71489140       2.71484537       0.00000000
Si       2.71340901      -2.71635750      -0.00387096       0.00000000
