10
Lattice="16.28999089631971 0.0 0.0 0.0 16.28999089631971 0.0 0.0 0.0 34.25627252547053" Properties=species:S:1:pos:R:3:initial_magmoms:R:1 pbc="T T T"
Si       2.27623428       0.31563504      -0.56043293       0.00000000
Si       0.20300598      -0.91887003      -2.18435244       0.00000000
Si      -0.57656500      -1.83345905       1.54022937       0.00000000
Si      -1.41485003       2.00578770       0.25010519       0.00000000
Si       2.55296880       1.03946490       1.65165481       0.00000000
Si      -1.83334945      -0.49805046       3.06756326       0.00000000
Si      -3.12972344       0.85239054       1.59502916       0.00000000
Si      -2.52678167      -2.85052194       0.46328624       0.00000000
Si       0.89700885       2.20960818       3.05981791       0.00000000
Si      -0.36961847       3.56563665       1.63397514       0.00000000
