10
Lattice="16.28999089631971 0.0 0.0 0.0 16.28999089631971 0.0 0.0 0.0 34.25627252547053" Properties=species:S:1:pos:R:3:initial_magmoms:R:1 pbc="T T T"
Si      -0.33316308      -1.76725323       1.50224116       0.00000000
Si      -0.80014851       1.91492208       1.23744002       0.00000000
Si       2.29982220      -0.55237761      -0.57786938       0.00000000
Si      -1.48589235      -0.55258938      -2.69412031       0.00000000
Si       1.11931848      -1.36453185      -2.70984395       0.00000000
Si       0.80464455      -3.38527377       0.29789271       0.00000000
Si      -2.67931404      -1.58312736       1.80849241       0.00000000
Si       1.96617042       2.98804212      -0.93310713       0.00000000
Si      -0.25829424       3.68536815      -0.23787569       0.00000000
Si       3.45067812       1.40468670       0.04316293       0.00000000
