10
Lattice="16.28999089631971 0.0 0.0 0.0 16.28999089631971 0.0 0.0 0.0 34.25627252547053" Properties=species:S:1:pos:R:3:initial_magmoms:R:1 pbc="T T T"
Si       2.28592683       0.47488608       0.22208354       0.00000000
Si      -0.68198085       1.92137292       1.23620680       0.00000000
Si      -0.58751514      -2.03232411       1.13083444       0.00000000
Si      -0.91020375       0.14033835      -2.21518310       0.00000000
Si      -0.50855751       0.88128900       3.36297441       0.00000000
Si      -0.43969968      -1.49485185       3.41487269       0.00000000
Si       2.47816512       2.80355787      -0.36273987       0.00000000
Si      -0.11005524      -1.77458373      -3.45262312       0.00000000
Si      -2.75775039      -2.70632286       0.60989902       0.00000000
Si      -2.92210020       2.50515765       0.82646729       0.00000000
