10
Lattice="16.28999089631971 0.0 0.0 0.0 16.28999089631971 0.0 0.0 0.0 34.25627252547053" Properties=species:S:1:pos:R:3:initial_magmoms:R:1 pbc="T T T"
Si       0.28769769       1.77091848       1.48847013       0.00000000
Si      -1.83391191       0.98194491      -1.06286996       0.00000000
Si       1.87519077      -0.09822870      -1.47764514       0.00000000
Si      -0.66797145      -1.79655894       1.49494457       0.00000000
Si       2.08974636       0.63765576       2.59080334       0.00000000
Si       1.49986917      -1.71416412       2.58607597       0.00000000
Si      -3.75864057       0.23092704       0.10294016       0.00000000
Si       3.72840633      -0.64469304      -0.01616897       0.00000000
Si       2.23256079       2.10880566      -2.37382399       0.00000000
Si      -1.98172737       0.44447265      -3.34690821       0.00000000
