10
Lattice="16.28999089631971 0.0 0.0 0.0 16.28999089631971 0.0 0.0 0.0 34.25627252547053" Properties=species:S:1:pos:R:3:initial_magmoms:R:1 pbc="T T T"
Si      -2.24011935       0.58378473      -0.40973950       0.00000000
Si       0.17342334      -1.04008392       2.12676761       0.00000000
Si       0.68198085      -1.92137292      -1.23620680       0.00000000
Si       1.60008525       1.84290399      -0.08505837       0.00000000
Si      -2.73608469       0.99683397       1.83072474       0.00000000
Si       2.96790768      -1.44648684      -1.01412326       0.00000000
Si       3.16014597       0.88218495      -1.59894667       0.00000000
Si       1.75889646       0.41866929       3.17596931       0.00000000
Si      -0.22822290      -1.78103457      -3.45138990       0.00000000
Si      -2.10776310      -0.74684763       3.22958041       0.00000000
