10
Lattice="16.28999089631971 0.0 0.0 0.0 16.28999089631971 0.0 0.0 0.0 34.25627252547053" Properties=species:S:1:pos:R:3:initial_magmoms:R:1 pbc="T T T"
Si       1.27070145      -1.46778374      -1.27715334       0.00000000
Si      -1.33814205      -1.34987672       1.35997820       0.00000000
Si       1.38148974       1.36263701       1.35466848       0.00000000
Si      -1.32126561       1.38094209      -1.43262210       0.00000000
Si       2.04664302       0.36712905      -2.61852422       0.00000000
Si       0.39723165       2.33290851      -2.85684939       0.00000000
Si      -2.69335602      -2.70473231       0.01179102       0.00000000
Si      -2.69518050       0.00277987       2.71412941       0.00000000
Si      -2.69156412       2.71819959      -0.01399712       0.00000000
Si       0.02036250      -2.71084106       2.71443772       0.00000000
