10
Lattice="16.28999089631971 0.0 0.0 0.0 16.28999089631971 0.0 0.0 0.0 34.25627252547053" Properties=species:S:1:pos:R:3:initial_magmoms:R:1 pbc="T T T"
Si       1.29637399      -1.35044100       1.47253410       0.00000000
Si      -1.42048800       1.36345671       1.45253871       0.00000000
Si      -1.04646960      -1.73713302      -1.37006809       0.00000000
Si       1.71487341       1.15339716      -1.34492397       0.00000000
Si       3.12972344      -0.85239054      -1.59502916       0.00000000
Si       2.55315843      -2.68584959      -0.05479979       0.00000000
Si      -2.76496686      -2.68909944       0.05415920       0.00000000
Si       2.76010497       2.71324611       0.03894598       0.00000000
Si       2.65176018       0.00203625       2.84391623       0.00000000
Si      -2.90541924       2.62769103       0.00610447       0.00000000
