10
Lattice="16.28999089631971 0.0 0.0 0.0 16.28999089631971 0.0 0.0 0.0 34.25627252547053" Properties=species:S:1:pos:R:3:initial_magmoms:R:1 pbc="T T T"
Si       1.35560493       1.35607897      -1.35802217       0.00000000
Si       1.35757602      -1.35777211       1.35699448       0.00000000
Si      -1.35826020       1.35785458       1.35726853       0.00000000
Si      -1.35819504      -1.35894979      -1.35706299       0.00000000
Si      -0.00115659      -2.71160638      -2.71121420       0.00000000
Si      -2.71249677      -0.00114356      -2.71487963       0.00000000
Si       2.71456560      -2.71478293      -0.00010277       0.00000000
Si      -2.71485882       2.71497448      -0.00017128       0.00000000
Si      -2.71526607      -2.71466890      -0.00013703       0.00000000
Si       2.71539639       2.71464868      -0.00058236       0.00000000
