10
Lattice="16.28999089631971 0.0 0.0 0.0 16.28999089631971 0.0 0.0 0.0 34.25627252547053" Properties=species:S:1:pos:R:3:initial_magmoms:R:1 pbc="T T T"
Si       1.35826020       1.35786761      -1.37443093       0.00000000
Si      -1.35964485      -1.36152702      -1.37391709       0.00000000
Si       1.36946772      -1.46319291       1.41656617       0.00000000
Si      -1.43076699       1.37783915       1.46298345       0.00000000
Si       0.20326662       0.41146748       2.90328923       0.00000000
Si       2.70917361       2.70962810       0.00616613       0.00000000
Si      -2.73039948      -2.69680203       0.00726233       0.00000000
Si      -2.72875419       2.70687509      -0.01716240       0.00000000
Si      -0.00257382       2.71435220      -2.73481679       0.00000000
Si       2.71453302      -0.00160457      -2.73522786       0.00000000
