10
Lattice="16.28999089631971 0.0 0.0 0.0 16.28999089631971 0.0 0.0 0.0 34.25627252547053" Properties=species:S:1:pos:R:3:initial_magmoms:R:1 pbc="T T T"
Si      -0.59421033      -1.86829100       1.33644071       0.00000000
Si      -1.63403361       0.96637167      -1.44030578       0.00000000
Si      -2.59501329      -0.44135311       0.28117564       0.00000000
Si       1.16620110      -1.87466039      -1.48672306       0.00000000
Si      -0.78586218       2.81456991      -0.23849230       0.00000000
Si      -0.20326662      -0.41146748      -2.90328923       0.00000000
Si       3.18459726      -1.07175982      -0.42340777       0.00000000
Si       0.12579138      -3.54448313      -0.19567194       0.00000000
Si       3.24635265      -0.22004043       1.78584900       0.00000000
Si       1.57198500      -1.58792802       2.98560710       0.00000000
