10
Lattice="16.28999089631971 0.0 0.0 0.0 16.28999089631971 0.0 0.0 0.0 34.25627252547053" Properties=species:S:1:pos:R:3:initial_magmoms:R:1 pbc="T T T"
Si       1.16296495       1.86966846       0.78392098       0.00000000
Si       0.49484624      -0.47965905      -2.26793779       0.00000000
Si      -2.28623634       0.64246131      -0.26771292       0.00000000
Si       0.06242328      -1.44432027       1.95250586       0.00000000
Si      -0.65391318       3.25601262       1.23014343       0.00000000
Si      -1.36528119      -1.74632058      -2.83193338       0.00000000
Si       2.39111855      -1.86768108      -1.94380476       0.00000000
Si      -2.16632565      -2.30545854       1.79417328       0.00000000
Si      -3.36412935      -0.22959126       1.60668859       0.00000000
Si       1.96184121       1.55321892       2.95268680       0.00000000
