10
Lattice="16.28999089631971 0.0 0.0 0.0 16.28999089631971 0.0 0.0 0.0 34.25627252547053" Properties=species:S:1:pos:R:3:initial_magmoms:R:1 pbc="T T T"
Si      -1.35913986      -1.35922131      -1.33903733       0.00000000
Si      -1.35576783       1.35698958       1.35572700       0.00000000
Si       1.35848858      -1.35876519       1.35459654       0.00000000
Si       1.36842604       1.36181142      -1.34812895       0.00000000
Si      -0.10542888       2.60004690      -2.63586407       0.00000000
Si       2.55210936      -0.14978655      -2.69097901       0.00000000
Si      -2.73808836      -0.02950119      -2.65574984       0.00000000
Si      -2.71303434      -0.00013032       2.71234466       0.00000000
Si      -2.71098180      -2.71529865      -0.00243220       0.00000000
Si       0.00144981       2.71477737       2.71237892       0.00000000
