10
Lattice="16.28999089631971 0.0 0.0 0.0 16.28999089631971 0.0 0.0 0.0 34.25627252547053" Properties=species:S:1:pos:R:3:initial_magmoms:R:1 pbc="T T T"
Si       1.05140547       1.53209079      -1.37982428       0.00000000
Si      -1.23865902       1.39501044       1.37269071       0.00000000
Si       1.48284612      -1.32375798       1.32863027       0.00000000
Si      -1.95641271      -0.74029905      -1.29176913       0.00000000
Si       2.02204742      -0.18353943      -3.00018114       0.00000000
Si       2.67259020       2.60444520       0.02074904       0.00000000
Si      -2.59050096       0.03893310       2.70929585       0.00000000
Si      -2.61760752       2.72473056       0.05597821       0.00000000
Si       0.12290805      -2.67742440       2.70542489       0.00000000
Si      -0.81101394       3.54045231      -1.21392925       0.00000000
