10
Lattice="16.28999089631971 0.0 0.0 0.0 16.28999089631971 0.0 0.0 0.0 34.25627252547053" Properties=species:S:1:pos:R:3:initial_magmoms:R:1 pbc="T T T"
Si       1.77839559       0.57210480       1.39036011       0.00000000
Si      -0.25513398      -2.34129654      -0.04809583       0.00000000
Si      -2.10940839      -0.11394855       1.21681774       0.00000000
Si       0.53582697       1.06246638      -2.22001324       0.00000000
Si      -0.62815869      -2.69358408      -2.46494572       0.00000000
Si       3.74471818      -0.31861611       0.24208921       0.00000000
Si       1.40344866       2.83128345       2.04917711       0.00000000
Si      -0.13727583      -0.73746459      -3.70046740       0.00000000
Si       1.61603316      -0.41233248       3.53206347       0.00000000
Si      -1.08269856       2.95251363      -2.36656165       0.00000000
