10
Lattice="16.28999089631971 0.0 0.0 0.0 16.28999089631971 0.0 0.0 0.0 34.25627252547053" Properties=species:S:1:pos:R:3:initial_magmoms:R:1 pbc="T T T"
Si      -1.77839559      -0.57210480      -1.39036011       0.00000000
Si      -0.16236243      -0.98443728       2.14170336       0.00000000
Si      -0.37494693       2.25917865       0.65881700       0.00000000
Si       1.96632259      -0.89072091      -1.14827090       0.00000000
Si       0.73072053      -3.13230636       1.88197215       0.00000000
Si      -2.03352957      -2.91340134      -1.43845594       0.00000000
Si      -1.24256862       0.49036158      -3.61037335       0.00000000
Si      -2.58681942       2.42997930       1.62864687       0.00000000
Si      -2.39808348      -1.08149310       2.88938118       0.00000000
Si      -3.88780398      -0.68605335      -0.17354237       0.00000000
