10
Lattice="16.28999089631971 0.0 0.0 0.0 16.28999089631971 0.0 0.0 0.0 34.25627252547053" Properties=species:S:1:pos:R:3:initial_magmoms:R:1 pbc="T T T"
Si      -1.35295435       1.35871224      -1.35884432       0.00000000
Si      -1.35686395      -1.35697804       1.35757684       0.00000000
Si       1.35827085       1.35852490       1.35696023       0.00000000
Si       1.35917494      -1.35657079      -1.35980350       0.00000000
Si       0.01011229      -2.70994399      -2.70293103       0.00000000
Si      -2.71385353       0.00003277       2.71467409       0.00000000
Si      -2.71408159      -2.71476583       0.00092492       0.00000000
Si       0.00064028      -2.71460293       2.71470835       0.00000000
Si      -2.71582462       2.71388386      -0.00034256       0.00000000
Si       0.00107987       2.71565947       2.71481111       0.00000000
