10
Lattice="16.28999089631971 0.0 0.0 0.0 16.28999089631971 0.0 0.0 0.0 34.25627252547053" Properties=species:S:1:pos:R:3:initial_magmoms:R:1 pbc="T T T"
Si      -1.90224846       0.71527761      -1.16348069       0.00000000
Si      -0.79469136      -1.86601950       1.25624673       0.00000000
Si       0.67826088       1.69707591       1.54814459       0.00000000
Si       1.91804066      -0.55530981      -1.33071991       0.00000000
Si       2.34666314       0.41643756       2.68678947       0.00000000
Si      -3.53194893       0.76589064       0.56286513       0.00000000
Si       1.34682366       3.47380992       0.15922324       0.00000000
Si      -1.28278863       2.66971923      -2.38951337       0.00000000
Si      -1.28192526      -3.61486503      -0.32026207       0.00000000
Si       1.00760396       3.05735607      -2.13310503       0.00000000
