10
Lattice="16.28999089631971 0.0 0.0 0.0 16.28999089631971 0.0 0.0 0.0 34.25627252547053" Properties=species:S:1:pos:R:3:initial_magmoms:R:1 pbc="T T T"
Si      -1.87519077       0.09822870       1.47764514       0.00000000
Si       0.35737002       2.20703436      -0.89617885       0.00000000
Si       1.85321556      -0.54646434       1.46147617       0.00000000
Si      -0.46525869      -1.36265850      -1.95154668       0.00000000
Si      -1.58749308       1.86914718       2.96611527       0.00000000
Si       2.24495748       2.12294538      -2.32809184       0.00000000
Si      -3.70910268       1.08017361       0.41477518       0.00000000
Si       0.61263432      -0.49060593      -3.82594819       0.00000000
Si       0.73254501      -3.43852578      -1.76406200       0.00000000
Si       2.34044946       1.20238119       3.03798497       0.00000000
