10
Lattice="16.28999089631971 0.0 0.0 0.0 16.28999089631971 0.0 0.0 0.0 34.25627252547053" Properties=species:S:1:pos:R:3:initial_magmoms:R:1 pbc="T T T"
Si       1.47385492      -1.23823548       1.28773511       0.00000000
Si      -1.27070145       1.46778374       1.27715334       0.00000000
Si      -0.82606590      -1.81382634      -1.28979323       0.00000000
Si       0.77594157       1.83491279      -1.34137087       0.00000000
Si       0.38120229       0.29230776      -3.27116896       0.00000000
Si       0.10542888      -2.60004690       2.63586407       0.00000000
Si      -2.60884350       0.11790702       2.63713155       0.00000000
Si      -2.63265948      -2.62954809      -0.01988578       0.00000000
Si       2.65753824      -2.74983345      -0.05511495       0.00000000
Si      -1.69717365      -0.88687647      -3.32988424       0.00000000
