10
Lattice="16.28999089631971 0.0 0.0 0.0 16.28999089631971 0.0 0.0 0.0 34.25627252547053" Properties=species:S:1:pos:R:3:initial_magmoms:R:1 pbc="T T T"
Si       1.35725022       1.35728774      -1.35822771       0.00000000
Si      -1.35782037      -1.35728280      -1.35822771       0.00000000
Si      -1.35907470       1.35446463       1.36100247       0.00000000
Si       1.36137159      -1.35809730       1.35596679       0.00000000
Si       2.71378368      -2.71407690      -0.00126748       0.00000000
Si       2.71510317       2.71438708      -0.00030831       0.00000000
Si       2.71423980       0.00027693      -2.71532496       0.00000000
Si      -0.00024435      -2.71463076      -2.71535922       0.00000000
Si      -0.00032580       2.71505986      -2.71522219       0.00000000
Si      -2.71464705      -2.71595025      -0.00106195       0.00000000
