10
Lattice="16.28999089631971 0.0 0.0 0.0 16.28999089631971 0.0 0.0 0.0 34.25627252547053" Properties=species:S:1:pos:R:3:initial_magmoms:R:1 pbc="T T T"
Si      -0.67310280      -1.79993097      -1.48045416       0.00000000
Si      -1.61852553       1.89004725      -0.14654842       0.00000000
Si      -0.53582697      -1.06246638       2.22001324       0.00000000
Si       2.10691653       0.82989405      -1.29827920       0.00000000
Si      -1.96604010      -0.41606289      -2.87564440       0.00000000
Si       0.78692103       2.27991582      -2.86779971       0.00000000
Si      -3.34523295       0.91768086      -1.49055976       0.00000000
Si       1.24256862      -0.49036158       3.61037335       0.00000000
Si      -0.57811581       3.55986999      -1.43759954       0.00000000
Si      -1.16398566      -3.75605046      -0.24493249       0.00000000
