10
Lattice="16.28999089631971 0.0 0.0 0.0 16.28999089631971 0.0 0.0 0.0 34.25627252547053" Properties=species:S:1:pos:R:3:initial_magmoms:R:1 pbc="T T T"
Si      -1.29577176      -1.92811698       0.28446425       0.00000000
Si      -1.33100703       1.10718243      -1.60949761       0.00000000
Si       2.21187249      -0.17080065      -0.96982987       0.00000000
Si      -0.84613518       0.90005508       2.21973919       0.00000000
Si       1.48103793       1.83300735       1.54889823       0.00000000
Si       1.17191889       1.90698463      -2.20428960       0.00000000
Si       0.85973733       3.35597525      -0.27795555       0.00000000
Si      -3.20963499       1.03692366       1.55468754       0.00000000
Si       3.56405491       0.93908592       0.57906835       0.00000000
Si       0.18873594      -3.51147240       1.26073430       0.00000000
