10
Lattice="16.28999089631971 0.0 0.0 0.0 16.28999089631971 0.0 0.0 0.0 34.25627252547053" Properties=species:S:1:pos:R:3:initial_magmoms:R:1 pbc="T T T"
Si       1.35218242       1.10988657       1.54889823       0.00000000
Si       0.37494693      -2.25917865      -0.65881700       0.00000000
Si      -2.21187249       0.17080065       0.96982987       0.00000000
Si      -1.03995360       2.07778528      -1.23445973       0.00000000
Si      -0.73083456       2.00380800       2.51872810       0.00000000
Si       0.21258450      -3.24361593       1.48288635       0.00000000
Si      -1.40344866      -2.83128345      -2.04917711       0.00000000
Si       2.97348605      -0.42523416       2.33518289       0.00000000
Si      -3.54287952       1.27798308      -0.63966773       0.00000000
Si      -1.35213516       3.52677590       0.69187432       0.00000000
