10
Lattice="16.28999089631971 0.0 0.0 0.0 16.28999089631971 0.0 0.0 0.0 34.25627252547053" Properties=species:S:1:pos:R:3:initial_magmoms:R:1 pbc="T T T"
Si      -0.08746101      -1.71836694       1.46003741       0.00000000
Si      -0.86260437       2.01132630       0.83958745       0.00000000
Si       1.44456366      -0.53616906      -1.76711081       0.00000000
Si      -1.83259242      -1.93940595      -0.34256292       0.00000000
Si      -3.12365637       1.53727101       0.42529186       0.00000000
Si       3.01965191      -1.77215652      -0.47253129       0.00000000
Si      -3.31589466      -0.79140078       1.01011527       0.00000000
Si       1.72941712      -3.10471110       1.01381495       0.00000000
Si      -0.02547756      -1.53912807      -3.36910629       0.00000000
Si      -0.48006630       1.89680760       3.18035412       0.00000000
