10
Lattice="16.28999089631971 0.0 0.0 0.0 16.28999089631971 0.0 0.0 0.0 34.25627252547053" Properties=species:S:1:pos:R:3:initial_magmoms:R:1 pbc="T T T"
Si      -1.91002272       0.86962536       1.05156539       0.00000000
Si       1.09747359       1.83624138      -1.01545925       0.00000000
Si      -0.80194434      -1.16129781      -2.01564020       0.00000000
Si       1.12631178      -1.00760166       2.02530048       0.00000000
Si      -2.23789155      -0.95314419       2.56829696       0.00000000
Si       3.27878930       1.10128545      -1.15032627       0.00000000
Si       0.29859733       2.15269092      -3.18422508       0.00000000
Si       0.44198028      -3.08539116      -2.44336426       0.00000000
Si      -0.35364271      -0.63768834       3.90257952       0.00000000
Si      -1.42278882       2.61847089       2.62807418       0.00000000
