10
Lattice="16.28999089631971 0.0 0.0 0.0 16.28999089631971 0.0 0.0 0.0 34.25627252547053" Properties=species:S:1:pos:R:3:initial_magmoms:R:1 pbc="T T T"
Si      -1.67224995      -0.59085459       1.54396532       0.00000000
Si       2.00541303      -1.18117161       0.37753859       0.00000000
Si      -0.83575845      -0.22009419      -2.19651342       0.00000000
Si       0.42140601       2.31883263       0.54265392       0.00000000
Si      -0.00834048       1.91563884      -2.75273283       0.00000000
Si      -2.46179204       1.60067169       1.87464131       0.00000000
Si       2.74167216       2.17727253       0.25445573       0.00000000
Si       2.33209269       1.78973343      -2.09093553       0.00000000
Si       1.28282121      -3.34610284       0.92615310       0.00000000
Si       3.47439636       0.30903759       1.53019429       0.00000000
