10
Lattice="16.28999089631971 0.0 0.0 0.0 16.28999089631971 0.0 0.0 0.0 34.25627252547053" Properties=species:S:1:pos:R:3:initial_magmoms:R:1 pbc="T T T"
Si      -1.94414471      -1.10664486      -0.88956738       0.00000000
Si       0.93905334      -0.38848392      -2.22155477       0.00000000
Si      -0.61335108       2.29076496       0.59667609       0.00000000
Si      -0.11471418      -0.05289363       2.64451720       0.00000000
Si      -3.42409919      -0.73673154       0.98771166       0.00000000
Si       1.84423977      -1.68231717       2.67202501       0.00000000
Si      -2.94075714       1.74882924       1.29348332       0.00000000
Si       0.03007134       3.37238838      -1.45075395       0.00000000
Si      -1.15460262      -3.29817114      -1.22024337       0.00000000
Si       0.51764733      -2.70731655      -2.76420869       0.00000000
