10
Lattice="16.28999089631971 0.0 0.0 0.0 16.28999089631971 0.0 0.0 0.0 34.25627252547053" Properties=species:S:1:pos:R:3:initial_magmoms:R:1 pbc="T T T"
Si      -1.76118170      -0.85828752      -1.34966364       0.00000000
Si       0.99323388       1.86947298      -1.19646950       0.00000000
Si      -0.91039760      -0.14063157       2.32000735       0.00000000
Si       1.82539224      -1.77127686      -0.06536100       0.00000000
Si      -0.67312072       2.27734200       2.54894215       0.00000000
Si      -0.41833046      -2.18359305      -2.78558461       0.00000000
Si       2.31058989       0.55574964      -2.76684642       0.00000000
Si       2.50044984      -1.86970104       2.18822340       0.00000000
Si       0.82738539      -3.55763826      -1.34870446       0.00000000
Si      -3.46342409      -1.89421749      -0.02904934       0.00000000
