10
Lattice="16.28999089631971 0.0 0.0 0.0 16.28999089631971 0.0 0.0 0.0 34.25627252547053" Properties=species:S:1:pos:R:3:initial_magmoms:R:1 pbc="T T T"
Si      -2.34431738      -0.30358044       0.25774434       0.00000000
Si       0.25027956      -1.73314197      -1.64717953       0.00000000
Si       1.08061344       0.01316232       2.14800651       0.00000000
Si       0.76592322       1.85078835      -1.34109956       0.00000000
Si       2.52424953       0.04126257      -2.15081553       0.00000000
Si      -1.34599220      -0.47996856      -3.00143351       0.00000000
Si      -2.15062437      -2.07062190       1.84853801       0.00000000
Si      -1.10871532       1.93800501      -2.77249871       0.00000000
Si      -3.23740034       1.84428864       0.51747554       0.00000000
Si       3.38988384       0.21098808       1.65728513       0.00000000
