10
Lattice="16.28999089631971 0.0 0.0 0.0 16.28999089631971 0.0 0.0 0.0 34.25627252547053" Properties=species:S:1:pos:R:3:initial_magmoms:R:1 pbc="T T T"
Si      -1.55248817       0.77059845      -1.58027699       0.00000000
Si       2.32740606       0.54193572      -0.69680723       0.00000000
Si      -0.48334206      -2.48556078      -0.30577166       0.00000000
Si      -0.97064195       1.71563022       1.62035685       0.00000000
Si       1.58886633       3.05305551      -0.14973425       0.00000000
Si       2.82604296      -1.80172287       1.35103389       0.00000000
Si      -2.02204742       0.18353943       3.00018114       0.00000000
Si       2.94075714      -1.74882924      -1.29348332       0.00000000
Si       0.99661243      -2.85547410      -2.18305070       0.00000000
Si      -3.67838204       0.30410172      -0.54981348       0.00000000
