10
Lattice="16.28999089631971 0.0 0.0 0.0 16.28999089631971 0.0 0.0 0.0 34.25627252547053" Properties=species:S:1:pos:R:3:initial_magmoms:R:1 pbc="T T T"
Si      -1.35782037       1.35593073      -1.35918688       0.00000000
Si       1.36285398       1.34030862       1.37278663       0.00000000
Si       1.35808101      -1.36071999      -1.35980350       0.00000000
Si      -1.35559027      -1.37503890       1.39231272       0.00000000
Si       2.71088406      -2.71686249       0.00058236       0.00000000
Si       0.00087966       2.71244572      -2.71559901       0.00000000
Si      -2.71649501       2.71195147       0.00215815       0.00000000
Si       2.71814940       2.71083537       0.00150728       0.00000000
Si       2.71487511      -0.00198738      -2.71618137       0.00000000
Si      -2.71511699      -0.00252495      -2.71594157       0.00000000
