10
Lattice="10.86 0.0 0.0 0.0 10.86 0.0 0.0 0.0 10.86" Properties=species:S:1:pos:R:3:initial_magmoms:R:1 pbc="T T T"
Si       1.41832686      -1.29164496      -1.23105702       0.00000000
Si      -1.29667314      -1.29164496       1.48394298       0.00000000
Si      -1.63046610       1.14911832      -1.42451706       0.00000000
Si       1.41832686       1.42335504       1.48394298       0.00000000
Si       2.34031914       0.07178460      -2.62330902       0.00000000
Si       0.06082686      -2.64914496      -2.58855702       0.00000000
Si      -2.71154652       2.54378124       0.05774262       0.00000000
Si      -2.65417314      -2.64914496       0.12644298       0.00000000
Si       2.77582686      -2.64914496       0.12644298       0.00000000
Si       0.06082686      -2.64914496       2.84144298       0.00000000
