10
Lattice="10.86 0.0 0.0 0.0 10.86 0.0 0.0 0.0 10.86" Properties=species:S:1:pos:R:3:initial_magmoms:R:1 pbc="T T T"
Si      -0.15954426       2.23537896       0.12010074       0.00000000
Si       0.69419292      -1.53266094      -1.60681302       0.00000000
Si      -1.07381508      -0.51680568       2.12355354       0.00000000
Si      -1.66054830       1.14247200      -1.52932692       0.00000000
Si      -0.74002212      -2.95756896      -0.39798642       0.00000000
Si      -0.74002212      -0.24256896      -3.11298642       0.00000000
Si       2.89697016      -1.59413940       0.92476158       0.00000000
Si      -3.45502212      -0.24256896      -0.39798642       0.00000000
Si       0.55665102      -1.66592400       3.54807060       0.00000000
Si       0.49875636       3.80468154      -1.44512934       0.00000000
