10
Lattice="10.86 0.0 0.0 0.0 10.86 0.0 0.0 0.0 10.86" Properties=species:S:1:pos:R:3:initial_magmoms:R:1 pbc="T T T"
Si      -1.36881612      -1.29103680       1.39986486       0.00000000
Si      -1.36881612       1.42396320      -1.31513514       0.00000000
Si       1.34618388       1.42396320       1.39986486       0.00000000
Si      -2.48404038      -0.08999682      -2.61204720       0.00000000
Si       2.55140496       0.00556032      -2.61420834       0.00000000
Si      -0.01131612      -2.64853680       2.75736486       0.00000000
Si      -0.01131612       2.78146320      -2.67263514       0.00000000
Si       2.70368388       0.06646320       2.75736486       0.00000000
Si      -2.72631612       0.06646320       2.75736486       0.00000000
Si       2.70368388       2.78146320       0.04236486       0.00000000
