10
Lattice="10.86 0.0 0.0 0.0 10.86 0.0 0.0 0.0 10.86" Properties=species:S:1:pos:R:3:initial_magmoms:R:1 pbc="T T T"
Si      -1.70946174      -0.90497466       0.88036590       0.00000000
Si       1.00553826       1.81002534       0.88036590       0.00000000
Si       1.00553826      -0.90497466      -1.83463410       0.00000000
Si      -0.35196174      -2.26247466       2.23786590       0.00000000
Si       2.36303826       0.45252534       2.23786590       0.00000000
Si       2.36303826      -2.26247466      -0.47713410       0.00000000
Si      -3.06696174       0.45252534       2.23786590       0.00000000
Si       1.00553826      -0.90497466       3.59536590       0.00000000
Si       1.00553826      -3.61997466       0.88036590       0.00000000
Si      -0.35196174       3.16752534       2.23786590       0.00000000
