10
Lattice="16.28999089631971 0.0 0.0 0.0 16.28999089631971 0.0 0.0 0.0 34.40246978574605" Properties=species:S:1:pos:R:3:initial_magmoms:R:1 pbc="T T T"
Si       0.63951282      -1.61378514      -1.60504812       0.00000000
Si      -1.64178113       0.76077558      -1.52898422       0.00000000
Si       1.79075970       1.55787786      -0.14493769       0.00000000
Si      -0.61695117      -0.81536337       2.19081931       0.00000000
Si       1.49102370      -0.23366376      -3.29393512       0.00000000
Si      -1.43975255      -2.80445382      -1.94212371       0.00000000
Si      -0.47930067      -3.23302743       1.83981071       0.00000000
Si       3.36294018       0.92237238       1.47978866       0.00000000
Si      -3.04050311      -1.06608276      -1.99737411       0.00000000
Si      -3.17390192       2.09060973      -0.36662733       0.00000000
