10
Lattice="16.28999089631971 0.0 0.0 0.0 16.28999089631971 0.0 0.0 0.0 34.40246978574605" Properties=species:S:1:pos:R:3:initial_magmoms:R:1 pbc="T T T"
Si       1.29538080      -1.35702216      -1.39570898       0.00000000
Si      -0.91736483      -1.71859500       1.34055976       0.00000000
Si       1.74474045       1.05697665       1.37231670       0.00000000
Si      -1.84235339       1.23225705      -1.55440766       0.00000000
Si      -2.31142555      -0.32597919       2.75559262       0.00000000
Si       0.39583071       2.43209734       2.75004350       0.00000000
Si      -0.39153015      -2.12638257      -3.02298111       0.00000000
Si      -2.64265244      -1.03145022      -2.49590058       0.00000000
Si      -2.68417565       2.76624304       0.06409184       0.00000000
Si      -2.22008591      -3.21279525      -0.00553880       0.00000000
