10
Lattice="16.28999089631971 0.0 0.0 0.0 16.28999089631971 0.0 0.0 0.0 34.40246978574605" Properties=species:S:1:pos:R:3:initial_magmoms:R:1 pbc="T T T"
Si       1.04788683       1.52075458      -1.46967433       0.00000000
Si      -1.50848658      -1.29377451      -1.46203698       0.00000000
Si      -0.97839369       0.94203604       2.12717470       0.00000000
Si       1.98483876      -2.81951134      -0.03694827       0.00000000
Si      -2.58220935      -2.28342373       0.48658880       0.00000000
Si      -3.04607850      -0.21508664       1.79677320       0.00000000
Si      -0.63879606      -3.48650539       1.31854420       0.00000000
Si       1.91728413       3.29452381       0.05119090       0.00000000
Si       2.50243722       0.06457682      -3.00932332       0.00000000
Si      -0.22372686      -2.65646473      -3.03925349       0.00000000
