10
Lattice="16.28999089631971 0.0 0.0 0.0 16.28999089631971 0.0 0.0 0.0 34.40246978574605" Properties=species:S:1:pos:R:3:initial_magmoms:R:1 pbc="T T T"
Si      -1.04788683      -1.52075458       1.46967433       0.00000000
Si      -1.27858581       1.25001315      -1.57098966       0.00000000
Si       0.86939730       1.77376923       1.52086523       0.00000000
Si       1.45455039      -1.45617776      -1.53964899       0.00000000
Si       2.58031971       2.66877441      -0.01823332       0.00000000
Si      -2.64662001       2.64145608      -0.16379025       0.00000000
Si      -2.55637341      -2.81452909       0.00763735       0.00000000
Si      -0.90305244       3.59119566       1.07205036       0.00000000
Si       0.09923868       2.60866431      -2.94887815       0.00000000
Si      -2.61364905      -0.10801899      -2.94839652       0.00000000
