10
Lattice="16.28999089631971 0.0 0.0 0.0 16.28999089631971 0.0 0.0 0.0 34.40246978574605" Properties=species:S:1:pos:R:3:initial_magmoms:R:1 pbc="T T T"
Si      -1.59112575       0.11386710      -1.72353030       0.00000000
Si      -0.39496734      -2.20525712       0.78733536       0.00000000
Si      -0.70687197       1.73358180       1.51436316       0.00000000
Si       1.94396715       0.76634676      -1.27763964       0.00000000
Si       1.43130456       2.81409750       1.41807060       0.00000000
Si      -1.93490991       2.48976360      -1.71517049       0.00000000
Si       1.79449011       3.10938633      -0.94737574       0.00000000
Si      -0.37074411      -0.66199302      -3.67119281       0.00000000
Si       1.03848750      -2.78818730       2.50811346       0.00000000
Si       2.89678554       1.10915352       2.36585917       0.00000000
