10
Lattice="16.28999089631971 0.0 0.0 0.0 16.28999089631971 0.0 0.0 0.0 34.40246978574605" Properties=species:S:1:pos:R:3:initial_magmoms:R:1 pbc="T T T"
Si      -1.34884458      -1.36094805      -1.34627260       0.00000000
Si       1.13223645      -1.30083795       1.58437223       0.00000000
Si       1.36585134       1.35099486      -1.34379562       0.00000000
Si      -1.38116394       1.34728074       1.33970173       0.00000000
Si       1.75003470       0.82415997       2.72914945       0.00000000
Si      -2.35113570      -0.37841670       2.67465591       0.00000000
Si       0.15574869       2.78562258       2.45788583       0.00000000
Si       2.69537598      -2.68089417       0.02246483       0.00000000
Si      -2.70686043      -0.00457749      -2.70437966       0.00000000
Si       0.00744453       2.71099809      -2.70489570       0.00000000
