10
Lattice="16.28999089631971 0.0 0.0 0.0 16.28999089631971 0.0 0.0 0.0 34.40246978574605" Properties=species:S:1:pos:R:3:initial_magmoms:R:1 pbc="T T T"
Si      -1.34143263       1.37811771      -1.32277570       0.00000000
Si       1.38116394      -1.34728074      -1.33970173       0.00000000
Si       1.53691263       1.43834184       1.11818410       0.00000000
Si      -0.96997176      -1.72569744       1.33495418       0.00000000
Si      -2.41144128      -0.10712304       2.15652002       0.00000000
Si       3.13119864      -0.52312077       1.38944773       0.00000000
Si       2.51340039      -2.64811869       0.24467050       0.00000000
Si      -2.68708437       0.00684180      -2.68649037       0.00000000
Si      -2.71353933      -2.67543702       0.09911357       0.00000000
Si       0.03231936      -2.70822879      -2.68597433       0.00000000
