10
Lattice="16.28999089631971 0.0 0.0 0.0 16.28999089631971 0.0 0.0 0.0 34.40246978574605" Properties=species:S:1:pos:R:3:initial_magmoms:R:1 pbc="T T T"
Si       1.71092241       0.89500518      -1.53909855       0.00000000
Si      -0.86939730      -1.77376923      -1.52086523       0.00000000
Si      -1.77244974       1.81742643      -0.44881487       0.00000000
Si       0.03951954       0.22374315       2.68435741       0.00000000
Si       3.19368708      -0.54903816       1.79666999       0.00000000
Si      -2.14798311      -0.52375608      -3.09185489       0.00000000
Si      -1.91728413      -3.29452381      -0.05119090       0.00000000
Si       2.32872066       3.02000310      -0.39432133       0.00000000
Si       0.57868596       2.19584313      -3.12347078       0.00000000
Si       2.07844110       1.33043688       3.08924031       0.00000000
