10
Lattice="16.28999089631971 0.0 0.0 0.0 16.28999089631971 0.0 0.0 0.0 34.40246978574605" Properties=species:S:1:pos:R:3:initial_magmoms:R:1 pbc="T T T"
Si      -1.80807597      -1.39878972       0.49677194       0.00000000
Si      -0.60150825       2.30769027       0.05666090       0.00000000
Si      -0.14589324      -0.19877058      -2.40273864       0.00000000
Si       1.92132405      -0.77916699       1.26456669       0.00000000
Si      -2.22783669      -0.72459549       2.72250977       0.00000000
Si       1.38613239       3.32070021      -0.70576706       0.00000000
Si      -3.20777630      -1.23448878      -1.37716604       0.00000000
Si      -2.11190076       2.60095914      -1.79763326       0.00000000
Si       1.67449797      -1.45414314      -3.11487016       0.00000000
Si       2.07080109      -3.12220656       0.93430280       0.00000000
