10
Lattice="16.28999089631971 0.0 0.0 0.0 16.28999089631971 0.0 0.0 0.0 34.40246978574605" Properties=species:S:1:pos:R:3:initial_magmoms:R:1 pbc="T T T"
Si       1.82039121      -1.25537256      -0.71213152       0.00000000
Si      -0.40640292       2.08775898      -0.97885402       0.00000000
Si       0.14589324       0.19877058       2.40273864       0.00000000
Si      -1.92239919      -1.48511043      -1.06128238       0.00000000
Si      -3.06188306      -1.03571820       1.02557260       0.00000000
Si      -1.96600752       2.79972972       0.60510538       0.00000000
Si      -0.45561501       2.50646085       2.45939954       0.00000000
Si      -1.66218273      -1.20001914       2.89951058       0.00000000
Si       1.77842817       3.16765566      -0.78688813       0.00000000
Si       1.96445997      -3.12823386       0.96636592       0.00000000
