10
Lattice="16.28999089631971 0.0 0.0 0.0 16.28999089631971 0.0 0.0 0.0 34.40246978574605" Properties=species:S:1:pos:R:3:initial_magmoms:R:1 pbc="T T T"
Si      -1.36585134      -1.35099486       1.34379562       0.00000000
Si       1.35961227      -1.35408996      -1.36020561       0.00000000
Si      -1.35840681       1.36000323      -1.36110008       0.00000000
Si       1.37406150       1.37080350       1.35356593       0.00000000
Si       2.48380146      -0.03557736       2.89101316       0.00000000
Si      -2.71052568       2.71137276      -0.00079126       0.00000000
Si       2.71265967      -2.70992295      -0.00123849       0.00000000
Si      -2.71469592      -2.71194291      -0.00247698       0.00000000
Si      -0.00065160      -2.71241532      -2.71676456       0.00000000
Si       2.72064177       2.70938538      -0.00268339       0.00000000
