10
Lattice="16.28999089631971 0.0 0.0 0.0 16.28999089631971 0.0 0.0 0.0 34.40246978574605" Properties=species:S:1:pos:R:3:initial_magmoms:R:1 pbc="T T T"
Si       1.45533231       1.46626290      -1.09582248       0.00000000
Si      -0.95610897       1.47181779       1.59765159       0.00000000
Si      -1.53691263      -1.43834184      -1.11818410       0.00000000
Si       1.59428601      -1.96146261       0.27126363       0.00000000
Si      -0.73687815      -0.33469434       3.27518576       0.00000000
Si       1.45139013      -1.57972275       2.69364608       0.00000000
Si       2.58416415      -0.06382422      -2.44811552       0.00000000
Si      -0.13365945       2.64047868      -2.44360879       0.00000000
Si      -0.15574869      -2.78562258      -2.45788583       0.00000000
Si      -2.87834526      -0.06022413      -2.44095980       0.00000000
