10
Lattice="16.28999089631971 0.0 0.0 0.0 16.28999089631971 0.0 0.0 0.0 34.40246978574605" Properties=species:S:1:pos:R:3:initial_magmoms:R:1 pbc="T T T"
Si      -1.61038053       1.35469269      -1.13700226       0.00000000
Si       1.60396227       1.10708469       1.52901316       0.00000000
Si      -1.07300601      -1.57288095       1.59430220       0.00000000
Si       0.61196643      -0.04629618      -2.68442622       0.00000000
Si      -2.25510615      -2.92128570       0.10702614       0.00000000
Si      -0.43520364      -3.26827899      -1.75593744       0.00000000
Si       0.20660607       2.39563998       3.01363881       0.00000000
Si       2.51392167       2.93775489       0.34822121       0.00000000
Si      -2.49380352      -0.31187205       3.02298597       0.00000000
Si      -2.90576133       2.71171485       0.25870672       0.00000000
