10
Lattice="16.28999089631971 0.0 0.0 0.0 16.28999089631971 0.0 0.0 0.0 34.40246978574605" Properties=species:S:1:pos:R:3:initial_magmoms:R:1 pbc="T T T"
Si       1.34037378       1.36207206      -1.36299221       0.00000000
Si      -1.49618763       1.21854087       1.34930002       0.00000000
Si      -1.36676358      -1.36373364      -1.35886391       0.00000000
Si       1.58899176      -1.17421578       1.34778631       0.00000000
Si       0.13365945      -2.64047868       2.44360879       0.00000000
Si       2.68042176       2.72021823      -0.00780937       0.00000000
Si       2.69871543      -0.00048870      -2.71655814       0.00000000
Si       2.71782360      -2.70430290      -0.00450673       0.00000000
Si      -0.01324377       2.71360449      -2.71803745       0.00000000
Si      -0.01464471      -2.71510317      -2.71917273       0.00000000
