10
Lattice="16.28999089631971 0.0 0.0 0.0 16.28999089631971 0.0 0.0 0.0 34.40246978574605" Properties=species:S:1:pos:R:3:initial_magmoms:R:1 pbc="T T T"
Si       0.96296706       1.33547049       1.67175455       0.00000000
Si       1.49618763      -1.21854087      -1.34930002       0.00000000
Si      -1.24559856       1.49851710      -1.33055067       0.00000000
Si      -1.16994780      -1.27775502       1.68142165       0.00000000
Si      -2.51673984      -2.44734444       0.05741775       0.00000000
Si      -1.66066776       0.66847644       3.02724702       0.00000000
Si       0.67373811      -2.38720176       2.69196036       0.00000000
Si       2.02618278      -0.40094577       3.11573022       0.00000000
Si       0.12942405      -2.58227451      -2.70816393       0.00000000
Si      -2.59729389       0.14975397      -2.70826714       0.00000000
