10
Lattice="16.28999089631971 0.0 0.0 0.0 16.28999089631971 0.0 0.0 0.0 34.40246978574605" Properties=species:S:1:pos:R:3:initial_magmoms:R:1 pbc="T T T"
Si       0.86159439       0.57883257       2.10825333       0.00000000
Si      -2.33429184      -0.23991912      -0.23627629       0.00000000
Si       0.70703487       2.00228535      -1.12743837       0.00000000
Si       1.11814560      -1.91021427      -1.02257958       0.00000000
Si       2.47311522       0.96435171      -2.28164188       0.00000000
Si      -2.36283192      -1.17703395      -2.39365638       0.00000000
Si       1.45038015      -0.99698058      -3.13688775       0.00000000
Si      -2.78948331      -2.02251753       1.28710032       0.00000000
Si      -0.65246337       0.02342502      -3.64195069       0.00000000
Si       3.22817301       0.74099952       1.69132957       0.00000000
