10
Lattice="16.28999089631971 0.0 0.0 0.0 16.28999089631971 0.0 0.0 0.0 34.40246978574605" Properties=species:S:1:pos:R:3:initial_magmoms:R:1 pbc="T T T"
Si      -1.57218048       0.63550548      -1.62472635       0.00000000
Si       2.16507132       1.02426633      -0.15023567       0.00000000
Si      -0.07063344      -2.36936421       0.79087882       0.00000000
Si      -0.05220945       3.01893840       1.59063348       0.00000000
Si      -2.29298040      -0.96837534       2.33830278       0.00000000
Si      -0.34604847       0.26068887      -3.67170885       0.00000000
Si       1.76865417       3.34136475       0.10138414       0.00000000
Si      -3.36294018      -0.92237238      -1.47978866       0.00000000
Si       3.26280555       0.74238417       1.94325899       0.00000000
Si      -1.97175789       2.99014094      -1.61818988       0.00000000
