10
Lattice="16.28999089631971 0.0 0.0 0.0 16.28999089631971 0.0 0.0 0.0 34.40246978574605" Properties=species:S:1:pos:R:3:initial_magmoms:R:1 pbc="T T T"
Si       0.24299793      -2.18547292       0.72885113       0.00000000
Si       1.23124707      -0.27228735      -1.97831513       0.00000000
Si       0.71143317       1.37824803       1.76536372       0.00000000
Si      -2.19898710       0.65386431      -0.59877532       0.00000000
Si      -1.24616871       0.99667107       3.04472348       0.00000000
Si       2.59993287       1.62745245      -2.12769074       0.00000000
Si      -2.34846414       2.99690388      -0.26851143       0.00000000
Si      -0.34117776      -3.72878819      -0.99498879       0.00000000
Si      -0.24614190      -0.06641433      -3.86680536       0.00000000
Si      -2.45122146       0.44906643      -2.96945084       0.00000000
