10
Lattice="16.28999089631971 0.0 0.0 0.0 16.28999089631971 0.0 0.0 0.0 34.40246978574605" Properties=species:S:1:pos:R:3:initial_magmoms:R:1 pbc="T T T"
Si      -1.12205520      -0.73127506       1.87823829       0.00000000
Si      -0.24299793       2.18547292      -0.72885113       0.00000000
Si      -0.58417569      -1.54331527      -1.72383992       0.00000000
Si       2.07414054      -0.47377903       1.13332120       0.00000000
Si      -0.42961617      -2.96676805       1.51185178       0.00000000
Si       0.98824914       1.91318557      -2.70716626       0.00000000
Si       1.93696245      -2.80460110       1.09492802       0.00000000
Si       0.46843524       3.56372095       1.03651259       0.00000000
Si       1.94123043       0.62417741       3.22492372       0.00000000
Si      -1.29121056      -3.54560062      -0.59640155       0.00000000
