10
Lattice="16.28999089631971 0.0 0.0 0.0 16.28999089631971 0.0 0.0 0.0 34.40246978574605" Properties=species:S:1:pos:R:3:initial_magmoms:R:1 pbc="T T T"
Si      -1.83923874       0.90024079      -1.24963601       0.00000000
Si       1.14780969      -1.42122172      -1.56524445       0.00000000
Si       2.22971004       1.10969761      -0.01530911       0.00000000
Si       0.06204861      -1.56734302       1.98708777       0.00000000
Si       3.25620810      -0.87514278      -0.65798200       0.00000000
Si       1.03982328       0.11700455       3.41448629       0.00000000
Si       2.96469855       0.99084577       2.24701822       0.00000000
Si      -2.08705851      -3.29155807       0.34440332       0.00000000
Si       0.18775854       3.68395744      -1.34764870       0.00000000
Si      -3.58120989      -0.69257750      -1.49747154       0.00000000
