10
Lattice="16.28999089631971 0.0 0.0 0.0 16.28999089631971 0.0 0.0 0.0 34.40246978574605" Properties=species:S:1:pos:R:3:initial_magmoms:R:1 pbc="T T T"
Si      -1.35304740       1.35583299      -1.35896712       0.00000000
Si      -1.38313503      -1.32196608       1.36749894       0.00000000
Si       1.36008468      -1.36054080      -1.35937995       0.00000000
Si       1.34120457       1.36239786       1.39175269       0.00000000
Si       0.09356976      -2.59504587       2.61314426       0.00000000
Si      -2.71265967       2.70992295       0.00123849       0.00000000
Si       2.71073745       2.71583622       0.00454113       0.00000000
Si       0.00179190       2.71246419      -2.71593890       0.00000000
Si      -2.71331127      -0.00249237      -2.71552607       0.00000000
Si      -2.71208952      -2.71871955       0.00474754       0.00000000
