10
Lattice="16.28999089631971 0.0 0.0 0.0 16.28999089631971 0.0 0.0 0.0 34.40246978574605" Properties=species:S:1:pos:R:3:initial_magmoms:R:1 pbc="T T T"
Si       1.33108848       0.38828844       1.90689556       0.00000000
Si      -1.10973996       1.40638086      -1.53744723       0.00000000
Si      -2.09961810      -0.49125753       1.18193191       0.00000000
Si       1.57006278      -1.31194773      -1.50049896       0.00000000
Si      -2.23857180       2.93646798      -0.18515420       0.00000000
Si      -2.71741635      -2.61625545       0.03715469       0.00000000
Si      -2.48380146       0.03557736      -2.89101316       0.00000000
Si       0.04807179       0.60445674       3.85314757       0.00000000
Si       0.22885821      -2.67434559      -2.89225165       0.00000000
Si       3.02085018      -2.60755659      -0.07513504       0.00000000
