10
Lattice="16.28999089631971 0.0 0.0 0.0 16.28999089631971 0.0 0.0 0.0 34.40246978574605" Properties=species:S:1:pos:R:3:initial_magmoms:R:1 pbc="T T T"
Si      -2.36786553      -0.11119554       0.02975815       0.00000000
Si       0.86639994      -1.39683492       1.79928458       0.00000000
Si       0.88036047      -0.45414891      -2.23206789       0.00000000
Si       1.42237764       1.88033841       0.65258081       0.00000000
Si       2.76526008      -0.10555920       1.32886494       0.00000000
Si      -2.21563548      -1.67141916      -1.81077501       0.00000000
Si      -0.32680998      -0.03288951       3.43770312       0.00000000
Si      -0.16956261       2.95555986       2.02513692       0.00000000
Si      -0.81078588      -1.32028821      -3.62227247       0.00000000
Si      -3.17288475      -1.72675629       1.69858849       0.00000000
