10
Lattice="16.28999089631971 0.0 0.0 0.0 16.28999089631971 0.0 0.0 0.0 34.40246978574605" Properties=species:S:1:pos:R:3:initial_magmoms:R:1 pbc="T T T"
Si      -1.29681432       0.58399650      -1.87696540       0.00000000
Si      -0.29540286       1.11855285       2.05186765       0.00000000
Si      -0.23625387      -2.33605116       0.51070495       0.00000000
Si       2.24806887       0.42604866      -0.75076552       0.00000000
Si       1.70917938       0.44707905       3.10654476       0.00000000
Si      -3.29615118      -0.71739531      -1.52317020       0.00000000
Si      -0.73622655       3.36750138       1.38487220       0.00000000
Si       0.04668714      -0.26427267      -3.70982681       0.00000000
Si       3.36665430       0.64729944       1.45880314       0.00000000
Si       3.15265257      -1.65330468      -1.45226667       0.00000000
