10
Lattice="16.28999089631971 0.0 0.0 0.0 16.28999089631971 0.0 0.0 0.0 34.40246978574605" Properties=species:S:1:pos:R:3:initial_magmoms:R:1 pbc="T T T"
Si      -1.34658027      -1.33858188       1.35624932       0.00000000
Si       1.35200484      -1.34713413      -1.35693737       0.00000000
Si      -1.36568844       1.36523232      -1.35580209       0.00000000
Si       1.35829278       1.36656810       1.38425295       0.00000000
Si      -2.47541211       0.19150524       2.70854236       0.00000000
Si       2.70275535      -2.70347211       0.00598603       0.00000000
Si      -0.00619020      -2.70684414      -2.71449399       0.00000000
Si       2.70879894       0.00762372      -2.71514764       0.00000000
Si       2.69977428       2.72968272      -0.00110088       0.00000000
Si      -2.72064177      -2.70938538       0.00268339       0.00000000
