10
Lattice="16.28999089631971 0.0 0.0 0.0 16.28999089631971 0.0 0.0 0.0 34.40246978574605" Properties=species:S:1:pos:R:3:initial_magmoms:R:1 pbc="T T T"
Si      -0.04756680      -0.92854629       2.11138396       0.00000000
Si       1.12966263      -1.09053405      -1.71179905       0.00000000
Si       0.51808716       2.27959002      -0.01087119       0.00000000
Si      -2.30413905      -0.00908982      -0.48084359       0.00000000
Si      -1.97190450       0.90414387      -2.59515176       0.00000000
Si       1.02081285       0.84260025       3.19736733       0.00000000
Si      -0.19411164       2.64212397       2.23306556       0.00000000
Si      -0.94916943       2.86547616      -1.73990588       0.00000000
Si       1.78334775      -2.33623035       1.97910639       0.00000000
Si      -0.18808434      -0.34819875      -3.60854588       0.00000000
