10
Lattice="16.28999089631971 0.0 0.0 0.0 16.28999089631971 0.0 0.0 0.0 34.40246978574605" Properties=species:S:1:pos:R:3:initial_magmoms:R:1 pbc="T T T"
Si       1.23505893       1.23290865      -1.72772740       0.00000000
Si      -1.15662258      -1.34496756      -1.76966403       0.00000000
Si       2.12341779      -0.39418542       1.34207550       0.00000000
Si      -2.21561919       0.64684332       1.34757990       0.00000000
Si       2.29426731       2.89323432      -0.38905775       0.00000000
Si       2.98273158       1.86812091       1.66511487       0.00000000
Si      -2.61195489      -2.81123046      -0.67384155       0.00000000
Si      -3.56806386      -1.33941267       0.92381004       0.00000000
Si       1.47440790      -1.58128659       3.30621680       0.00000000
Si      -0.06519258       2.54946645      -3.12525971       0.00000000
