10
Lattice="16.28999089631971 0.0 0.0 0.0 16.28999089631971 0.0 0.0 0.0 34.40246978574605" Properties=species:S:1:pos:R:3:initial_magmoms:R:1 pbc="T T T"
Si       2.01381867       0.82699347      -0.82201307       0.00000000
Si      -0.13717809      -2.33082207      -0.03839318       0.00000000
Si      -0.13291011       1.09795644       2.09160253       0.00000000
Si      -2.07414054       0.47377903      -1.13332120       0.00000000
Si      -3.19619574      -0.25749603       0.74491709       0.00000000
Si       0.27267831       3.23772614       1.12437655       0.00000000
Si      -2.50375671      -2.49298902       0.37853059       0.00000000
Si       0.57502071      -2.69335602      -2.28232993       0.00000000
Si      -2.23176258       0.37022187       2.78419344       0.00000000
Si       3.70291248      -0.34731909       0.35135262       0.00000000
