10
Lattice="16.28999089631971 0.0 0.0 0.0 16.28999089631971 0.0 0.0 0.0 34.40246978574605" Properties=species:S:1:pos:R:3:initial_magmoms:R:1 pbc="T T T"
Si       0.13717809       2.33082207       0.03839318       0.00000000
Si       1.21492449      -1.79952372       0.96430177       0.00000000
Si       0.71219880      -0.36253395      -2.24393675       0.00000000
Si      -2.36657862      -0.16216695       0.41692376       0.00000000
Si       0.19411164      -2.64212397      -2.23306556       0.00000000
Si       0.14654484      -3.57067026      -0.12168160       0.00000000
Si      -1.93696245       2.80460110      -1.09492802       0.00000000
Si      -3.22817301      -0.74099952      -1.69132957       0.00000000
Si      -3.05901765       2.07332604       0.78331027       0.00000000
Si       2.15099676       3.15781554      -0.78361989       0.00000000
