10
Lattice="16.28999089631971 0.0 0.0 0.0 16.28999089631971 0.0 0.0 0.0 34.40246978574605" Properties=species:S:1:pos:R:3:initial_magmoms:R:1 pbc="T T T"
Si       0.67202766      -2.10538476      -0.71612221       0.00000000
Si      -2.29392522       0.45450729      -0.09594854       0.00000000
Si       0.77173875      -0.16804764       2.22542821       0.00000000
Si       0.95110794       2.16233460      -0.28946254       0.00000000
Si       0.97990866       2.18631348       2.18703503       0.00000000
Si       2.98263384      -0.86164326       1.59741077       0.00000000
Si       0.80544276      -1.91762622      -3.00980496       0.00000000
Si      -0.90207504      -3.58301808       0.13059185       0.00000000
Si      -2.50406622       2.58294144      -1.15152011       0.00000000
Si      -0.40521375       3.31067601      -1.84411102       0.00000000
