10
Lattice="16.28999089631971 0.0 0.0 0.0 16.28999089631971 0.0 0.0 0.0 34.40246978574605" Properties=species:S:1:pos:R:3:initial_magmoms:R:1 pbc="T T T"
Si       0.13427847      -0.95050521       2.10722126       0.00000000
Si       0.91406759      -1.58931756      -1.44039781       0.00000000
Si      -2.30180958       0.35355816      -0.29015059       0.00000000
Si       1.18881881       2.02292478      -0.36342789       0.00000000
Si      -2.45873115       2.31352209      -1.43379253       0.00000000
Si      -0.29041812      -1.16030412      -3.47279366       0.00000000
Si       0.13906773      -3.64368204      -0.50440929       0.00000000
Si      -0.33254406       3.33384624      -1.69944855       0.00000000
Si       0.03492576       0.76909977       3.70043493       0.00000000
Si       3.17621510      -0.95656509      -1.81418086       0.00000000
