10
Lattice="16.28999089631971 0.0 0.0 0.0 16.28999089631971 0.0 0.0 0.0 34.40246978574605" Properties=species:S:1:pos:R:3:initial_magmoms:R:1 pbc="T T T"
Si      -2.19517524      -0.66363831       0.48634799       0.00000000
Si      -0.05118318       2.32308432      -0.32352101       0.00000000
Si       1.45367073      -0.80342280       1.72425275       0.00000000
Si       0.26391429      -0.90210762      -2.43707232       0.00000000
Si       2.06082251       2.34416358      -1.31252376       0.00000000
Si       0.77180391      -3.12222285       1.15571722       0.00000000
Si      -1.68997347      -2.92337082       0.99457596       0.00000000
Si      -3.51292221       0.07869699      -1.41039884       0.00000000
Si      -0.57225141       3.41195679       1.71234949       0.00000000
Si       3.49795889       0.33875055      -1.65166350       0.00000000
