10
Lattice="16.28999089631971 0.0 0.0 0.0 16.28999089631971 0.0 0.0 0.0 34.40246978574605" Properties=species:S:1:pos:R:3:initial_magmoms:R:1 pbc="T T T"
Si       1.35149985      -1.34944731      -1.36054620       0.00000000
Si       1.36107837       1.35029343       1.35370010       0.00000000
Si      -1.35270531      -1.35778779       1.35710595       0.00000000
Si      -1.27202094       1.34541783      -1.49132726       0.00000000
Si       0.65285433       2.21925905      -2.65879533       0.00000000
Si      -0.33541110      -2.27331837      -2.77316885       0.00000000
Si       2.35574577       0.34936090      -2.70656563       0.00000000
Si      -2.24979561      -0.33892974      -2.91872578       0.00000000
Si      -2.69869914       2.71543616      -0.03144387       0.00000000
Si      -2.70726768      -0.00364830       2.71490338       0.00000000
