10
Lattice="16.28999089631971 0.0 0.0 0.0 16.28999089631971 0.0 0.0 0.0 34.40246978574605" Properties=species:S:1:pos:R:3:initial_magmoms:R:1 pbc="T T T"
Si       1.80807597       1.39878972      -0.49677194       0.00000000
Si      -1.39970033       0.16430094      -1.87393798       0.00000000
Si      -0.41976072       0.67419423       2.22573783       0.00000000
Si       0.34378416      -2.37589650      -0.00835980       0.00000000
Si       1.22803794      -0.75618180       3.22953366       0.00000000
Si       1.66218273       1.20001914      -2.89951058       0.00000000
Si       1.93490991      -2.48976360       1.71517049       0.00000000
Si      -3.32375363      -0.97917561      -1.20491278       0.00000000
Si      -2.68190822       0.04144176       2.59952087       0.00000000
Si       3.72940002       0.61962273       0.76779475       0.00000000
