10
Lattice="16.28999089631971 0.0 0.0 0.0 16.28999089631971 0.0 0.0 0.0 34.40246978574605" Properties=species:S:1:pos:R:3:initial_magmoms:R:1 pbc="T T T"
Si      -1.32932264       1.30499190      -1.42371949       0.00000000
Si       1.34363178       1.36350558       1.36506668       0.00000000
Si      -1.37773001      -1.35114147       1.36372499       0.00000000
Si       1.42079751      -1.26100890      -1.42868376       0.00000000
Si       2.70040959       2.70751203      -0.00934716       0.00000000
Si      -2.63204372      -0.18920835      -2.76981805       0.00000000
Si       2.70422145      -2.70661608      -0.01752463       0.00000000
Si       2.69746110       0.00619020       2.72083437       0.00000000
Si      -2.72338336       2.69760771      -0.00868663       0.00000000
Si      -2.70355307      -2.72275947       0.01986400       0.00000000
