10
Lattice="16.28999089631971 0.0 0.0 0.0 16.28999089631971 0.0 0.0 0.0 34.40246978574605" Properties=species:S:1:pos:R:3:initial_magmoms:R:1 pbc="T T T"
Si       1.35584179       1.35765747       1.35559568       0.00000000
Si       1.35634678      -1.35746199      -1.35669656       0.00000000
Si      -1.35767703       1.35729909      -1.35679976       0.00000000
Si      -1.35513579      -1.35786924       1.35920794       0.00000000
Si       0.00839942       2.70589932       2.71359953       0.00000000
Si       2.71051331       0.00070047       2.71521645       0.00000000
Si       2.71383647       2.71370223       0.00027522       0.00000000
Si      -2.71386840       0.00255753      -2.71397796       0.00000000
Si       0.00058147      -2.71528236      -2.71356513       0.00000000
Si       2.71435775       0.00084708      -2.71473481       0.00000000
