10
Lattice="16.28999089631971 0.0 0.0 0.0 16.28999089631971 0.0 0.0 0.0 34.40246978574605" Properties=species:S:1:pos:R:3:initial_magmoms:R:1 pbc="T T T"
Si       1.41339371       1.35083196      -1.26890140       0.00000000
Si      -1.35644484      -1.47041685      -1.23301961       0.00000000
Si      -1.04724663       1.37337732       1.64406055       0.00000000
Si       1.61162671      -1.60630803       0.80632554       0.00000000
Si      -0.03380175       2.58905115      -2.65738586       0.00000000
Si       2.76018574       2.52042138       0.35510249       0.00000000
Si       2.68163536      -0.12106728      -2.67297019       0.00000000
Si       0.36723361       1.42915428       3.50678331       0.00000000
Si      -2.72906274      -0.13983336      -2.66368152       0.00000000
Si      -2.15777244      -3.21431022       0.26727294       0.00000000
