10
Lattice="16.28999089631971 0.0 0.0 0.0 16.28999089631971 0.0 0.0 0.0 34.40246978574605" Properties=species:S:1:pos:R:3:initial_magmoms:R:1 pbc="T T T"
Si       0.49071996      -1.94623146      -1.34582537       0.00000000
Si      -0.28246860       0.28067670       2.39372519       0.00000000
Si      -1.94341329       1.20308166      -0.83195539       0.00000000
Si       2.62363482       0.66699405      -1.35549247       0.00000000
Si       1.66066776      -0.66847644      -3.02724702       0.00000000
Si      -0.86969052       2.19273088      -2.78058117       0.00000000
Si      -3.57089653      -0.60676992      -0.53884619       0.00000000
Si       0.63879606       3.48650539      -1.31854420       0.00000000
Si       3.68685054      -1.06942221       0.08848320       0.00000000
Si       2.33440587      -3.05567820      -0.33528666       0.00000000
