10
Lattice="16.28999089631971 0.0 0.0 0.0 16.28999089631971 0.0 0.0 0.0 34.40246978574605" Properties=species:S:1:pos:R:3:initial_magmoms:R:1 pbc="T T T"
Si      -0.92307285      -1.86075783      -1.00544714       0.00000000
Si       2.13382710      -0.54799560      -0.75671715       0.00000000
Si       0.67010544       0.08752617       2.24995718       0.00000000
Si      -1.41906167       1.62788155      -0.99598646       0.00000000
Si       1.85370426      -2.75657751       0.30604454       0.00000000
Si      -0.01271435       2.38617616       2.41065121       0.00000000
Si      -2.66523038      -0.26984385      -2.10815012       0.00000000
Si      -1.86289901       2.85858616       1.00255733       0.00000000
Si      -3.03507854      -1.88183709      -0.01644439       0.00000000
Si       0.00901326       2.44274644      -2.67221333       0.00000000
