10
Lattice="10.86 0.0 0.0 0.0 10.86 0.0 0.0 0.0 10.86" Properties=species:S:1:pos:R:3:initial_magmoms:R:1 pbc="T T T"
Si       1.35750000       1.35750000       1.35750000       0.00000000
Si      -1.35750000      -1.35750000       1.35750000       0.00000000
Si      -1.35750000       1.35750000      -1.35750000       0.00000000
Si       1.35750000      -1.35750000      -1.35750000       0.00000000
Si       2.70674640       0.12405378       2.59675632       0.00000000
Si      -2.63821980       0.05544030      -2.68452684       0.00000000
Si       0.04556856      -2.79573324       2.59024032       0.00000000
Si      -2.64464892      -0.02913738       2.75041446       0.00000000
Si      -0.03278634      -2.67452478      -2.72136396       0.00000000
Si       2.86459650      -0.15341922      -2.51760864       0.00000000
