10
Lattice="10.86 0.0 0.0 0.0 10.86 0.0 0.0 0.0 10.86" Properties=species:S:1:pos:R:3:initial_magmoms:R:1 pbc="T T T"
Si      -0.84334416       1.65820254      -1.12766982       0.00000000
Si      -0.82219974      -1.17801678       1.68953364       0.00000000
Si      -2.03981208       0.15308256      -2.45129748       0.00000000
Si      -2.03338296       0.23766024       2.97376122       0.00000000
Si      -2.27045676       2.86051314       0.09961878       0.00000000
Si       0.65040540      -2.61351330      -2.61147162       0.00000000
Si      -3.46766316      -1.17528006      -1.12921194       0.00000000
Si       0.55137306       3.00183432      -2.41176708       0.00000000
Si       0.57205050      -2.49230484       2.93692410       0.00000000
Si       0.61474116       2.79477756       2.79552690       0.00000000
