10
Lattice="16.28999089631971 0.0 0.0 0.0 16.28999089631971 0.0 0.0 0.0 34.3005442915855" Properties=species:S:1:pos:R:3:initial_magmoms:R:1 pbc="T T T"
Si       2.11253607       0.69395400      -0.58897498       0.00000000
Si      -1.40149386       1.88652114       0.20844452       0.00000000
Si      -0.89036253      -1.32137964      -1.80914892       0.00000000
Si       2.87497323      -0.88801677       1.02881110       0.00000000
Si       1.76648760       0.59476419       2.70000315       0.00000000
Si      -1.50915447      -2.00899683       2.24075291       0.00000000
Si      -1.24551711      -3.23545464      -0.56156882       0.00000000
Si       1.97653086       0.29820474      -2.89891212       0.00000000
Si       2.07049158       2.80265282       1.05357611       0.00000000
Si      -3.59632212       0.67326570      -0.43609736       0.00000000
