10
Lattice="16.28999089631971 0.0 0.0 0.0 16.28999089631971 0.0 0.0 0.0 34.3005442915855" Properties=species:S:1:pos:R:3:initial_magmoms:R:1 pbc="T T T"
Si      -1.35666378      -1.35769005      -1.35730760       0.00000000
Si       1.35883035       1.35731538      -1.35744480       0.00000000
Si       1.35923760      -1.35713619       1.35988014       0.00000000
Si      -1.35759231       1.35927018       1.35994874       0.00000000
Si      -2.71397916       2.71551042      -0.00041161       0.00000000
Si      -2.71451673       0.00029322      -2.71502680       0.00000000
Si       0.00066789      -2.71507873      -2.71447799       0.00000000
Si       2.71578735       2.71396287       0.00099472       0.00000000
Si       0.00089595       2.71549413      -2.71454659       0.00000000
Si      -2.71437012      -2.71596002      -0.00109762       0.00000000
