10
Lattice="16.28999089631971 0.0 0.0 0.0 16.28999089631971 0.0 0.0 0.0 34.3005442915855" Properties=species:S:1:pos:R:3:initial_magmoms:R:1 pbc="T T T"
Si      -1.38290697       1.32103755      -1.52016667       0.00000000
Si       1.31929452      -1.38557201      -1.52925632       0.00000000
Si      -1.56976956      -1.51184721       1.17798425       0.00000000
Si       1.56600657       1.33682256       1.49831721       0.00000000
Si       2.65111605      -2.80996703      -0.20309364       0.00000000
Si       2.80909647       2.73098592      -0.06990455       0.00000000
Si      -2.90413233       2.65188168      -0.14248454       0.00000000
Si      -0.02876814       2.67529041      -2.90717856       0.00000000
Si       2.68806177      -0.04111596      -2.90724716       0.00000000
Si      -2.74027122      -0.04377123      -2.90783027       0.00000000
