10
Lattice="16.28999089631971 0.0 0.0 0.0 16.28999089631971 0.0 0.0 0.0 34.3005442915855" Properties=species:S:1:pos:R:3:initial_magmoms:R:1 pbc="T T T"
Si      -1.36262592       1.33130025       1.36052499       0.00000000
Si       1.34081361      -1.41635034       1.33831880       0.00000000
Si      -1.79455527      -0.98347617      -1.21074198       0.00000000
Si       1.59428601       1.19364975      -1.42889428       0.00000000
Si       0.14257008       2.41134354      -2.78328633       0.00000000
Si      -2.35607157       2.84434803      -0.19148976       0.00000000
Si      -3.32146584       0.98758125      -1.39610295       0.00000000
Si      -0.01438407       2.66115069       2.71517772       0.00000000
Si       2.70197343      -0.05343120       2.70824901       0.00000000
Si      -2.72921031      -0.05403393       2.70732289       0.00000000
