10
Lattice="16.28999089631971 0.0 0.0 0.0 16.28999089631971 0.0 0.0 0.0 34.3005442915855" Properties=species:S:1:pos:R:3:initial_magmoms:R:1 pbc="T T T"
Si      -1.35519768      -1.35669636      -1.35717039       0.00000000
Si      -1.35760860       1.35747828       1.35754770       0.00000000
Si       1.35793440      -1.35817875       1.35710179       0.00000000
Si       1.35843939       1.35984033      -1.35679309       0.00000000
Si      -0.00188964       2.71311579      -2.71238566       0.00000000
Si      -2.71450044       2.71410948      -0.00048021       0.00000000
Si      -2.71487511       0.00001629       2.71413499       0.00000000
Si      -0.00055386      -2.71217097      -2.71729064       0.00000000
Si       2.71482624       2.71477737       0.00010290       0.00000000
Si      -0.00089595      -2.71549413       2.71454659       0.00000000
