10
Lattice="16.28999089631971 0.0 0.0 0.0 16.28999089631971 0.0 0.0 0.0 34.3005442915855" Properties=species:S:1:pos:R:3:initial_magmoms:R:1 pbc="T T T"
Si      -0.94056831       0.53090739      -2.04808664       0.00000000
Si       1.11948138       1.90736352       0.69400330       0.00000000
Si      -1.26151389      -0.87245982       1.77090379       0.00000000
Si       2.03804190      -1.21963230       0.13816267       0.00000000
Si       2.90781387       0.03808602       1.98329288       0.00000000
Si       0.97805160       1.27120644      -3.27577241       0.00000000
Si       0.16602768      -0.60851295       3.93482344       0.00000000
Si       1.72491552       3.18335922      -1.68823943       0.00000000
Si      -3.04925180       0.47566800       2.55518617       0.00000000
Si      -1.79427834      -1.44339174      -3.28184361       0.00000000
