10
Lattice="16.28999089631971 0.0 0.0 0.0 16.28999089631971 0.0 0.0 0.0 34.3005442915855" Properties=species:S:1:pos:R:3:initial_magmoms:R:1 pbc="T T T"
Si       1.25823960       1.93246641       0.24936510       0.00000000
Si       1.00695006      -2.12209830       0.26994543       0.00000000
Si      -0.53230833      -0.12649185      -2.31741467       0.00000000
Si      -1.81713321       0.08783568       1.58650396       0.00000000
Si      -0.71065125       3.29486427       0.11322616       0.00000000
Si      -1.77645708      -2.08393083      -2.19002238       0.00000000
Si       1.58104224      -0.90176553      -3.10162845       0.00000000
Si      -0.80371602      -3.49236423      -0.42217134       0.00000000
Si       1.71266544      -2.02756743       2.57072433       0.00000000
Si      -3.68297352       0.38644767       0.17987215       0.00000000
