10
Lattice="16.28999089631971 0.0 0.0 0.0 16.28999089631971 0.0 0.0 0.0 34.3005442915855" Properties=species:S:1:pos:R:3:initial_magmoms:R:1 pbc="T T T"
Si      -0.49555809       1.27900935       1.87370331       0.00000000
Si       1.84375107       0.40729887      -1.38742349       0.00000000
Si      -1.99862010       0.44854515      -1.17431409       0.00000000
Si       0.48597957      -2.49230484      -0.02648003       0.00000000
Si       2.71322982      -1.61679879      -0.64070022       0.00000000
Si      -1.57832181      -0.68913216       2.89570300       0.00000000
Si      -1.98285138      -1.52668251      -2.44007348       0.00000000
Si      -1.68604758       2.52270198      -2.37164386       0.00000000
Si       1.13803569       0.31276800      -3.68820239       0.00000000
Si      -3.15959211      -2.10908259       1.20285216       0.00000000
