10
Lattice="16.28999089631971 0.0 0.0 0.0 16.28999089631971 0.0 0.0 0.0 34.3005442915855" Properties=species:S:1:pos:R:3:initial_magmoms:R:1 pbc="T T T"
Si       1.35775521       1.35694071      -1.35658728       0.00000000
Si       1.35689184      -1.35663120       1.35802791       0.00000000
Si      -1.35716877       1.35718506       1.35723900       0.00000000
Si      -1.35837423      -1.35700587      -1.35655298       0.00000000
Si       2.71261080      -0.00099369      -2.71190545       0.00000000
Si      -0.00006516       2.71393029       2.71430649       0.00000000
Si       2.71450044      -2.71410948       0.00048021       0.00000000
Si      -0.00037467      -2.71409319       2.71461519       0.00000000
Si      -2.71550228       0.00045612       2.71399778       0.00000000
Si       2.71453302       2.71536381       0.00030871       0.00000000
