10
Lattice="16.28999089631971 0.0 0.0 0.0 16.28999089631971 0.0 0.0 0.0 34.3005442915855" Properties=species:S:1:pos:R:3:initial_magmoms:R:1 pbc="T T T"
Si      -1.35562122       1.35682668      -1.35994874       0.00000000
Si       1.35912357      -1.36029645      -1.35926273       0.00000000
Si       1.35221661       1.35661491       1.37871115       0.00000000
Si      -1.35159759      -1.37134107       1.38269001       0.00000000
Si       2.71381626       2.71391400       0.00096042       0.00000000
Si      -2.71528236       2.71384884      -0.00483638       0.00000000
Si      -2.71425609      -2.71498914      -0.00030871       0.00000000
Si      -2.71337643      -0.00128691      -2.71725634       0.00000000
Si       0.00198738       2.71309950      -2.71759934       0.00000000
Si       2.71663443      -0.00211770      -2.71746214       0.00000000
