10
Lattice="16.28999089631971 0.0 0.0 0.0 16.28999089631971 0.0 0.0 0.0 34.3005442915855" Properties=species:S:1:pos:R:3:initial_magmoms:R:1 pbc="T T T"
Si      -1.73187135      -1.52982648      -0.02476501       0.00000000
Si       0.68330034       1.80954207       1.30294120       0.00000000
Si       2.02378815      -0.73909359      -0.98686151       0.00000000
Si      -1.12643721      -0.25383078      -2.40700774       0.00000000
Si      -2.74463694       0.34197597       0.82088108       0.00000000
Si       0.19526823       2.94190884      -1.11627754       0.00000000
Si       2.19730923      -2.61741204       0.46055367       0.00000000
Si       0.05646114      -3.39910398       1.26452457       0.00000000
Si       1.98563697       2.26913184      -2.54695404       0.00000000
Si       0.81528192       0.48865113      -3.90295821       0.00000000
