10
Lattice="16.28999089631971 0.0 0.0 0.0 16.28999089631971 0.0 0.0 0.0 34.3005442915855" Properties=species:S:1:pos:R:3:initial_magmoms:R:1 pbc="T T T"
Si       0.33348888      -2.20245687      -0.75557281       0.00000000
Si       1.77831414       1.51606143      -0.37504236       0.00000000
Si       0.22230963      -0.18907803       2.38416357       0.00000000
Si      -2.11554972       0.46429758      -1.15781552       0.00000000
Si      -1.91668140      -1.09341738       2.87106006       0.00000000
Si       0.98241732       3.62198376       0.28819333       0.00000000
Si      -2.70378162       2.67691941      -0.69619854       0.00000000
Si       3.62064798       1.02398940       1.05487953       0.00000000
Si      -0.32959557       1.90236249       3.44665782       0.00000000
Si      -1.69596819      -3.41290161      -1.04410915       0.00000000
