10
Lattice="16.28999089631971 0.0 0.0 0.0 16.28999089631971 0.0 0.0 0.0 34.3005442915855" Properties=species:S:1:pos:R:3:initial_magmoms:R:1 pbc="T T T"
Si       1.35957969      -1.35909099       1.35226541       0.00000000
Si      -1.35780408      -1.35584928      -1.35850812       0.00000000
Si       1.35755973       1.35920085      -1.35864532       0.00000000
Si      -1.36107837       1.36218609       1.35713609       0.00000000
Si       2.70596448      -0.01194057       2.70607435       0.00000000
Si       2.71476108      -2.70969489      -0.00267544       0.00000000
Si      -0.00035838      -2.71285515      -2.71622732       0.00000000
Si      -2.71495656      -2.71428867      -0.00222954       0.00000000
Si       2.71454931       0.00211770      -2.71629592       0.00000000
Si      -2.71498914       0.00195480      -2.71633022       0.00000000
