10
Lattice="16.28999089631971 0.0 0.0 0.0 16.28999089631971 0.0 0.0 0.0 34.3005442915855" Properties=species:S:1:pos:R:3:initial_magmoms:R:1 pbc="T T T"
Si       1.19364975      -1.50472359      -1.36361890       0.00000000
Si      -1.53010341       1.20550887      -1.36869538       0.00000000
Si      -1.19101077      -1.55605338       1.40937585       0.00000000
Si       1.26195372       1.68989202       2.13380375       0.00000000
Si       1.79018955      -0.49032900       2.91983546       0.00000000
Si       2.50453863       2.51532261      -0.02510801       0.00000000
Si      -2.45715102       0.10612935       2.70038046       0.00000000
Si      -0.95179212       2.05056891       2.95643417       0.00000000
Si       2.54311335      -0.14994945      -2.73536703       0.00000000
Si      -0.17754471       2.57132763      -2.73049635       0.00000000
