10
Lattice="16.28999089631971 0.0 0.0 0.0 16.28999089631971 0.0 0.0 0.0 34.3005442915855" Properties=species:S:1:pos:R:3:initial_magmoms:R:1 pbc="T T T"
Si      -0.99036684       0.38957535       2.13256893       0.00000000
Si       2.21374584      -0.36067689      -0.82263041       0.00000000
Si      -1.50535890      -1.94443956      -0.25605371       0.00000000
Si      -0.76455486       1.76287352      -1.60046429       0.00000000
Si      -1.00906776       2.61948806       1.41260010       0.00000000
Si      -3.28899987      -0.72050670      -1.31254536       0.00000000
Si      -2.07508536       0.39514653      -3.01505383       0.00000000
Si       0.95179212      -2.05056891      -2.95643417       0.00000000
Si       2.74198167      -2.54089791      -0.03659870       0.00000000
Si      -2.54969451       2.71599002      -0.35339871       0.00000000
