10
Lattice="16.28999089631971 0.0 0.0 0.0 16.28999089631971 0.0 0.0 0.0 34.3005442915855" Properties=species:S:1:pos:R:3:initial_magmoms:R:1 pbc="T T T"
Si      -0.52823583       2.18022102      -0.78603171       0.00000000
Si       1.79036874      -0.67277700      -1.43067650       0.00000000
Si       0.48803211      -1.13236677       2.41921874       0.00000000
Si      -0.19526823      -2.94190884       1.11627754       0.00000000
Si       2.22005007       0.40351959       2.41122671       0.00000000
Si       3.27875346      -0.20302227       0.43222140       0.00000000
Si      -1.79018955       0.49032900      -2.91983546       0.00000000
Si      -2.98120032      -1.06572438      -1.51045961       0.00000000
Si      -1.32170544      -3.19573962      -1.29073020       0.00000000
Si      -2.74198167       2.54089791       0.03659870       0.00000000
