10
Lattice="16.28999089631971 0.0 0.0 0.0 16.28999089631971 0.0 0.0 0.0 34.3005442915855" Properties=species:S:1:pos:R:3:initial_magmoms:R:1 pbc="T T T"
Si      -0.23019399       2.28820743      -0.27210637       0.00000000
Si       1.70180001      -0.22327074       1.59360418       0.00000000
Si      -1.98439893      -1.16833509       0.60921231       0.00000000
Si       2.39203989      -1.40291109      -1.65181223       0.00000000
Si      -1.11506679       2.77759161       1.87949937       0.00000000
Si       2.49769683      -2.32919307       0.93036848       0.00000000
Si      -1.39616703      -3.38095692       0.14759532       0.00000000
Si      -1.03589739      -2.87047719      -2.13387235       0.00000000
Si      -1.82834073       2.65992894      -1.90186334       0.00000000
Si      -1.48230855       0.89687853       3.37373482       0.00000000
