10
Lattice="16.28999089631971 0.0 0.0 0.0 16.28999089631971 0.0 0.0 0.0 34.3005442915855" Properties=species:S:1:pos:R:3:initial_magmoms:R:1 pbc="T T T"
Si      -0.12178404       2.25235314       0.68004297       0.00000000
Si      -2.02619907      -0.80732330      -0.89387268       0.00000000
Si       0.12202839      -1.45703366       1.87744134       0.00000000
Si       1.92523365      -0.78194348      -1.16748828       0.00000000
Si       2.01621330      -2.35189223       0.57827320       0.00000000
Si      -1.17149535       1.61997534       2.73296599       0.00000000
Si      -1.52948439      -3.14446589      -0.82815280       0.00000000
Si       0.39822534       0.09209714       3.63976999       0.00000000
Si       0.18588519      -3.70277306       0.70672881       0.00000000
Si      -1.23535215       3.44253312      -1.08825398       0.00000000
