10
Lattice="16.28999089631971 0.0 0.0 0.0 16.28999089631971 0.0 0.0 0.0 34.3005442915855" Properties=species:S:1:pos:R:3:initial_magmoms:R:1 pbc="T T T"
Si      -1.86005736       0.86395644       1.07323033       0.00000000
Si       1.24722756       1.39528737      -1.46933324       0.00000000
Si       1.11356811      -1.19017998       1.76829695       0.00000000
Si      -1.95001074      -1.08577737      -1.57185762       0.00000000
Si      -3.19935600      -1.05259464       0.45365925       0.00000000
Si       2.76752439       2.52900621      -0.01608696       0.00000000
Si       1.23535215      -3.44253312       1.08825398       0.00000000
Si      -0.51214131       3.74015142      -0.57429433       0.00000000
Si       3.02516703       0.05168817       2.43540861       0.00000000
Si      -2.65298940       2.95845948       0.22967657       0.00000000
