10
Lattice="16.28999089631971 0.0 0.0 0.0 16.28999089631971 0.0 0.0 0.0 34.3005442915855" Properties=species:S:1:pos:R:3:initial_magmoms:R:1 pbc="T T T"
Si       0.67131090       0.94700216      -2.00946421       0.00000000
Si       1.44902808      -1.37495556       1.24754579       0.00000000
Si      -1.69663608      -1.35563562      -0.96960833       0.00000000
Si       0.07760556       2.06364256       1.33707026       0.00000000
Si       2.56264506       2.06364256      -1.39960019       0.00000000
Si      -0.45243846      -2.18285811       2.95286691       0.00000000
Si      -3.72853665      -0.42459696      -0.35617705       0.00000000
Si       2.78397729       0.06467923       2.61699579       0.00000000
Si      -0.96045840       2.47051789      -2.81923191       0.00000000
Si       1.48027230       3.57670663       0.09854552       0.00000000
