10
Lattice="16.28999089631971 0.0 0.0 0.0 16.28999089631971 0.0 0.0 0.0 34.3005442915855" Properties=species:S:1:pos:R:3:initial_magmoms:R:1 pbc="T T T"
Si       1.33999911       1.37013561      -1.38721769       0.00000000
Si      -1.37613033      -1.34314308      -1.38515965       0.00000000
Si      -1.25509563       1.42895880       1.45218296       0.00000000
Si       1.46121300      -1.41260364       1.54825883       0.00000000
Si       2.69959509      -2.67731689      -0.02936128       0.00000000
Si       2.68842015       2.72494233      -0.01241680       0.00000000
Si      -2.74489758      -2.68759913      -0.00716882       0.00000000
Si       2.69666289       0.01402569      -2.74545140       0.00000000
Si      -0.01811448      -2.70011637      -2.74531420       0.00000000
Si      -2.73030174       2.71691136      -0.00209233       0.00000000
