10
Lattice="16.28999089631971 0.0 0.0 0.0 16.28999089631971 0.0 0.0 0.0 34.3005442915855" Properties=species:S:1:pos:R:3:initial_magmoms:R:1 pbc="T T T"
Si       1.59692499       1.67513328       0.44254587       0.00000000
Si      -0.72738108      -0.80444907       2.10979336       0.00000000
Si       1.62548136      -1.21914360      -1.28417880       0.00000000
Si      -1.65418434      -0.00799839      -1.84238617       0.00000000
Si       1.18635183      -2.03364360       2.71705053       0.00000000
Si       0.10518453      -2.35286244      -2.73742507       0.00000000
Si       2.18642751       2.34494550      -1.75882999       0.00000000
Si      -2.85159708      -1.75055598       1.88296373       0.00000000
Si       3.53629836       0.58290507       1.48878166       0.00000000
Si       0.75541617       3.42730197       1.80582176       0.00000000
