10
Lattice="16.28999089631971 0.0 0.0 0.0 16.28999089631971 0.0 0.0 0.0 34.3005442915855" Properties=species:S:1:pos:R:3:initial_magmoms:R:1 pbc="T T T"
Si      -1.35615879       1.35917244       1.36320729       0.00000000
Si       1.36151820      -1.35462753       1.36307009       0.00000000
Si       1.36658439       1.38533418      -1.34679790       0.00000000
Si      -1.35540945      -1.37673306      -1.37296237       0.00000000
Si      -2.50942400       0.12911454      -2.79772203       0.00000000
Si      -2.71459166      -2.71166598       0.00761473       0.00000000
Si       2.71616202      -2.71010214       0.00294985       0.00000000
Si      -2.71357843       2.71430496       0.00061741       0.00000000
Si       2.71482624       2.71518462       0.00785483       0.00000000
Si       0.00130320      -2.71313208       2.71976028       0.00000000
