10
Lattice="16.28999089631971 0.0 0.0 0.0 16.28999089631971 0.0 0.0 0.0 34.3005442915855" Properties=species:S:1:pos:R:3:initial_magmoms:R:1 pbc="T T T"
Si       1.35734796       1.35682668       1.35775350       0.00000000
Si       1.35785295      -1.35733167      -1.35758200       0.00000000
Si      -1.35757602       1.35812988      -1.35723900       0.00000000
Si      -1.35751086      -1.35817875       1.35819941       0.00000000
Si      -2.71396287       0.00319284      -2.71413499       0.00000000
Si       0.00184077      -2.71342530      -2.71536981       0.00000000
Si      -2.71446786      -2.71482624      -0.00024010       0.00000000
Si      -2.71464705       2.71521720      -0.00013720       0.00000000
Si       2.71521720      -2.71495656      -0.00010290       0.00000000
Si       2.71513575       2.71541268       0.00044591       0.00000000
