10
Lattice="16.28999089631971 0.0 0.0 0.0 16.28999089631971 0.0 0.0 0.0 34.3005442915855" Properties=species:S:1:pos:R:3:initial_magmoms:R:1 pbc="T T T"
Si       0.25824537      -2.16984429       0.82389953       0.00000000
Si       1.97561862       0.42670026      -1.20628222       0.00000000
Si      -1.84233384       0.49207203      -1.42992189       0.00000000
Si       0.22512780       1.38507354       1.93245944       0.00000000
Si      -1.57190355      -2.49885342       2.27621969       0.00000000
Si       2.60514567       1.49649714       2.24929375       0.00000000
Si       1.49939676       2.39593320      -2.48521302       0.00000000
Si      -2.63823066       2.59799436      -0.76668619       0.00000000
Si       2.20679001      -2.27869407       2.15160574       0.00000000
Si      -3.39833835      -1.21306743       1.32928404       0.00000000
