10
Lattice="16.28999089631971 0.0 0.0 0.0 16.28999089631971 0.0 0.0 0.0 34.3005442915855" Properties=species:S:1:pos:R:3:initial_magmoms:R:1 pbc="T T T"
Si      -1.97561862      -0.42670026       1.20628222       0.00000000
Si       1.75510089       0.64073457       1.44971331       0.00000000
Si       0.84150882      -1.75216869      -1.36327589       0.00000000
Si      -0.47622186       1.96923294      -1.27893081       0.00000000
Si       2.79112860       2.24222076       0.01811070       0.00000000
Si       0.62952705       1.06979688       3.45557597       0.00000000
Si      -1.71737325      -2.59654455       2.03018175       0.00000000
Si      -1.75049082       0.95837328       3.13874166       0.00000000
Si      -3.81795246       0.06537177      -0.22363967       0.00000000
Si       1.35410625       3.32011377      -1.40738642       0.00000000
