10
Lattice="16.28999089631971 0.0 0.0 0.0 16.28999089631971 0.0 0.0 0.0 34.3005442915855" Properties=species:S:1:pos:R:3:initial_magmoms:R:1 pbc="T T T"
Si       1.34638479       1.34715042       1.35380894       0.00000000
Si       1.35518139      -1.35060390      -1.35494086       0.00000000
Si      -1.35957969       1.35909099      -1.35226541       0.00000000
Si      -1.34946360      -1.35477414       1.37174813       0.00000000
Si      -2.54311335       0.14994945       2.73536703       0.00000000
Si      -0.03857472       2.66527206       2.71025902       0.00000000
Si       2.70961344      -2.71055826       0.00744322       0.00000000
Si      -0.00221544      -2.71137276      -2.71111654       0.00000000
Si       2.71254564       0.00353493      -2.71159674       0.00000000
Si       2.68069869       0.02186118       2.74479969       0.00000000
