10
Lattice="16.28999089631971 0.0 0.0 0.0 16.28999089631971 0.0 0.0 0.0 34.3005442915855" Properties=species:S:1:pos:R:3:initial_magmoms:R:1 pbc="T T T"
Si       1.81509696       1.01661705      -1.06540980       0.00000000
Si      -0.96176160      -1.83679524      -1.08873418       0.00000000
Si       0.88342299      -1.16383905       1.87699543       0.00000000
Si      -1.82058669       1.61782247       0.19541031       0.00000000
Si       0.43163613       2.24129290      -2.47163000       0.00000000
Si      -2.29607550      -0.51150600      -2.47972493       0.00000000
Si      -1.11663063      -2.40205824       2.25389002       0.00000000
Si      -0.80674596       3.50600615      -0.89400989       0.00000000
Si      -2.60501535      -2.87181297       0.39099212       0.00000000
Si      -3.68103501       0.80661564      -1.12327485       0.00000000
