10
Lattice="16.28999089631971 0.0 0.0 0.0 16.28999089631971 0.0 0.0 0.0 34.3005442915855" Properties=species:S:1:pos:R:3:initial_magmoms:R:1 pbc="T T T"
Si      -1.33431390       1.32528924      -1.39099075       0.00000000
Si       0.96176160       1.83679524       1.08873418       0.00000000
Si       1.39339773      -1.37409408      -1.36461362       0.00000000
Si      -1.64325375      -1.03501773       1.47972631       0.00000000
Si      -0.15486903      -0.56526300       3.34262421       0.00000000
Si       1.84518459       0.67295619       2.96572962       0.00000000
Si      -0.85882509       3.45461771       1.28414449       0.00000000
Si      -2.71927341       2.64341088      -0.03454067       0.00000000
Si      -2.68069869      -0.02186118      -2.74479969       0.00000000
Si       2.88201051      -2.53410498       0.11531849       0.00000000
