10
Lattice="16.28999089631971 0.0 0.0 0.0 16.28999089631971 0.0 0.0 0.0 34.3005442915855" Properties=species:S:1:pos:R:3:initial_magmoms:R:1 pbc="T T T"
Si       1.35720528       1.35636196       1.35744480       0.00000000
Si      -1.35770634      -1.35853499       1.35744480       0.00000000
Si      -1.35992178       1.35464174      -1.35943423       0.00000000
Si       1.35755714      -1.35908885      -1.36176667       0.00000000
Si      -0.00043424       2.71351607       2.71461519       0.00000000
Si      -2.71513575       2.71354865       0.00140632       0.00000000
Si       2.71489859      -0.00103436       2.71461519       0.00000000
Si      -2.71539639      -0.00076561       2.71434079       0.00000000
Si      -2.71544526      -2.71433540       0.00058311       0.00000000
Si       2.71426328       2.71620392      -0.00106332       0.00000000
