10
Lattice="16.28999089631971 0.0 0.0 0.0 16.28999089631971 0.0 0.0 0.0 34.3005442915855" Properties=species:S:1:pos:R:3:initial_magmoms:R:1 pbc="T T T"
Si       1.34713969       1.35565787       1.35586697       0.00000000
Si      -1.35786924       1.35489061      -1.35792501       0.00000000
Si       1.35910795      -1.35814277      -1.35689599       0.00000000
Si      -1.35971001      -1.35146387       1.39102505       0.00000000
Si       2.57793227      -0.12531557       2.67297431       0.00000000
Si      -0.03344337       2.71084578       2.71468379       0.00000000
Si       0.00031510       2.71242591      -2.71506110       0.00000000
Si       2.71796111       2.71048740       0.00174933       0.00000000
Si      -2.71464705      -0.00185577      -2.71533551       0.00000000
Si       2.71564793      -0.00212453      -2.71506110       0.00000000
