10
Lattice="16.28999089631971 0.0 0.0 0.0 16.28999089631971 0.0 0.0 0.0 34.3005442915855" Properties=species:S:1:pos:R:3:initial_magmoms:R:1 pbc="T T T"
Si       1.38346083      -1.22467585       1.40622020       0.00000000
Si       1.35138582       1.33591684      -1.35953713       0.00000000
Si      -1.36508571      -1.38077835      -1.35319153       0.00000000
Si      -1.23838209       1.26471325       1.57762012       0.00000000
Si      -0.43163613      -2.24129290       2.47163000       0.00000000
Si      -2.25222282      -0.62347043       2.66704031       0.00000000
Si      -2.69959509       2.67731689       0.02936128       0.00000000
Si       2.69228088       2.70298993       0.01581256       0.00000000
Si      -0.00293220       2.69134258      -2.71609012       0.00000000
Si       2.71010214      -0.02407825      -2.71605582       0.00000000
