10
Lattice="16.28999089631971 0.0 0.0 0.0 16.28999089631971 0.0 0.0 0.0 34.3005442915855" Properties=species:S:1:pos:R:3:initial_magmoms:R:1 pbc="T T T"
Si      -0.85867848      -1.40487566       1.63630838       0.00000000
Si      -1.54404765       1.21091715      -1.25999690       0.00000000
Si       1.28599776      -1.09964016      -1.64841648       0.00000000
Si       1.22536638       1.45943739       1.41404073       0.00000000
Si       2.69179122       2.14045713      -0.26850481       0.00000000
Si      -1.30811958       0.25200630       3.29642135       0.00000000
Si       3.27363255       0.19974798      -1.41740218       0.00000000
Si      -2.24081982       2.87373519       0.28973686       0.00000000
Si       2.16019965      -0.00770517       2.97125201       0.00000000
Si      -0.21654297       2.13954489      -2.98730467       0.00000000
