10
Lattice="16.28999089631971 0.0 0.0 0.0 16.28999089631971 0.0 0.0 0.0 34.3005442915855" Properties=species:S:1:pos:R:3:initial_magmoms:R:1 pbc="T T T"
Si      -0.53823789       2.18758410      -0.53231044       0.00000000
Si       2.32178668       0.22302639      -0.26291382       0.00000000
Si      -0.21623346      -0.55081377       2.34176807       0.00000000
Si      -1.38943926      -0.90688059      -1.77848422       0.00000000
Si      -2.37506571      -1.86207732       0.12118389       0.00000000
Si       2.07887997      -1.16659206      -2.10365356       0.00000000
Si       1.13538042      -3.07344733      -0.97039724       0.00000000
Si      -0.61761906      -3.39231268       0.68902972       0.00000000
Si       1.83043287       0.28913121       3.08262594       0.00000000
Si       0.60360966       2.38259169      -2.63795343       0.00000000
