10
Lattice="16.28999089631971 0.0 0.0 0.0 16.28999089631971 0.0 0.0 0.0 34.3005442915855" Properties=species:S:1:pos:R:3:initial_magmoms:R:1 pbc="T T T"
Si       1.35426915      -1.35192339       1.35634718       0.00000000
Si      -1.35829278      -1.35583299      -1.35713609       0.00000000
Si       1.35642382       1.35938421      -1.35737620       0.00000000
Si      -1.36032903       1.36024758       1.36231548       0.00000000
Si       2.69347887       0.00180819       2.70947011       0.00000000
Si       2.71259029      -2.71373481       0.00072031       0.00000000
Si      -0.00074934      -2.71293660      -2.71454659       0.00000000
Si      -2.71477737      -2.71298547      -0.00024010       0.00000000
Si       2.71411341       0.00140094      -2.71444369       0.00000000
Si      -2.71565703       0.00179190      -2.71461519       0.00000000
