10
Lattice="16.28999089631971 0.0 0.0 0.0 16.28999089631971 0.0 0.0 0.0 34.3005442915855" Properties=species:S:1:pos:R:3:initial_magmoms:R:1 pbc="T T T"
Si      -0.44737227      -1.40463783      -1.84519881       0.00000000
Si       1.82910244      -0.89041140       1.31014432       0.00000000
Si      -1.99199007      -0.48689181       1.29035290       0.00000000
Si       0.31700340       2.16474552      -1.09607451       0.00000000
Si       3.77070236      -0.12447189       0.05241126       0.00000000
Si       0.09086562      -3.59222193      -1.31288837       0.00000000
Si      -1.77624531       2.70681156      -2.11493844       0.00000000
Si       1.29531564      -0.09137061       3.65294141       0.00000000
Si      -2.67924888      -1.23657390      -2.54458730       0.00000000
Si      -1.93077225      -2.90172141       1.85672380       0.00000000
