10
Lattice="16.28999089631971 0.0 0.0 0.0 16.28999089631971 0.0 0.0 0.0 34.3005442915855" Properties=species:S:1:pos:R:3:initial_magmoms:R:1 pbc="T T T"
Si       1.80540441      -1.24131429      -0.82784410       0.00000000
Si      -1.43580060      -1.03951377      -1.55028257       0.00000000
Si      -0.24242778      -0.90870507       2.25776599       0.00000000
Si      -0.06121782       2.41482960      -0.56637090       0.00000000
Si      -1.56740751      -2.81312010       1.75279309       0.00000000
Si      -2.26628109       0.81083475      -2.80962775       0.00000000
Si       2.02163787      -0.69050052      -3.16961217       0.00000000
Si      -2.83846734      -2.55257784      -0.31175782       0.00000000
Si       3.85207074      -0.40136931      -0.08698623       0.00000000
Si      -2.33427555       2.74709673      -1.54067841       0.00000000
