10
Lattice="16.28999089631971 0.0 0.0 0.0 16.28999089631971 0.0 0.0 0.0 34.3005442915855" Properties=species:S:1:pos:R:3:initial_magmoms:R:1 pbc="T T T"
Si      -0.58950252      -0.66981222       2.20137586       0.00000000
Si       1.86981507       1.43619156      -0.39912136       0.00000000
Si       0.83344527      -2.04643125      -0.97777186       0.00000000
Si      -1.92363723       0.67381956      -1.30040296       0.00000000
Si      -0.81492354      -0.52458687      -3.14155431       0.00000000
Si       3.10949289      -1.46847834      -0.24950230       0.00000000
Si      -0.56094615      -3.56408910       0.47465120       0.00000000
Si      -2.18642751      -2.34494550       1.75882999       0.00000000
Si       1.26586332       2.66330097      -2.52448717       0.00000000
Si       2.65018752       1.96968906       2.06595724       0.00000000
