10
Lattice="16.28999089631971 0.0 0.0 0.0 16.28999089631971 0.0 0.0 0.0 34.3005442915855" Properties=species:S:1:pos:R:3:initial_magmoms:R:1 pbc="T T T"
Si       2.09064950      -0.71978994       0.86437420       0.00000000
Si      -0.65230047      -1.72387296      -1.56969669       0.00000000
Si       0.41906025       2.07611163      -1.18306073       0.00000000
Si      -1.71465282       0.55887732       1.68172233       0.00000000
Si      -3.09224925       1.72574631       0.06582278       0.00000000
Si      -1.72072899       3.06341595      -1.31998858       0.00000000
Si       2.74936823      -0.44756775      -2.68621433       0.00000000
Si      -0.49576986       1.43205390       3.61136912       0.00000000
Si       3.43126763      -1.71875790      -0.83130846       0.00000000
Si      -2.74554918      -1.18180692      -2.58856062       0.00000000
