10
Lattice="16.28999089631971 0.0 0.0 0.0 16.28999089631971 0.0 0.0 0.0 34.3005442915855" Properties=species:S:1:pos:R:3:initial_magmoms:R:1 pbc="T T T"
Si      -1.35265644       1.35664749      -1.36152657       0.00000000
Si      -1.35008262      -1.35731538       1.37260565       0.00000000
Si       1.36174626      -1.35907470      -1.36039465       0.00000000
Si       1.35817875       1.36443411       1.38721769       0.00000000
Si       0.13853016      -2.51732628       2.85253776       0.00000000
Si      -2.71516833       2.71408849       0.00113192       0.00000000
Si      -2.71456560      -2.71564074      -0.00013720       0.00000000
Si      -2.71163340      -0.00154755      -2.71917717       0.00000000
Si       0.00324171       2.71404221      -2.71914287       0.00000000
Si       2.71788876       2.71589798      -0.00380736       0.00000000
