10
Lattice="16.28999089631971 0.0 0.0 0.0 16.28999089631971 0.0 0.0 0.0 34.3005442915855" Properties=species:S:1:pos:R:3:initial_magmoms:R:1 pbc="T T T"
Si      -0.88342299       1.16383905      -1.87699543       0.00000000
Si      -2.00005362      -1.23821919       0.37689459       0.00000000
Si       1.82970909      -1.57827294      -0.91942660       0.00000000
Si       0.39596103       1.73084508       2.01656443       0.00000000
Si      -1.84518459      -0.67295619      -2.96572962       0.00000000
Si       0.93167397       2.18045610      -2.94240524       0.00000000
Si       0.48694068       0.16089633       3.76232590       0.00000000
Si      -1.35979146      -3.56775435       0.30465760       0.00000000
Si       2.43366084      -2.80538235       1.20593921       0.00000000
Si      -3.05875701      -0.63167733       2.35589990       0.00000000
