10
Lattice="16.28999089631971 0.0 0.0 0.0 16.28999089631971 0.0 0.0 0.0 34.3005442915855" Properties=species:S:1:pos:R:3:initial_magmoms:R:1 pbc="T T T"
Si       0.60395175      -1.22710941       2.12536581       0.00000000
Si      -1.82970909       1.57827294       0.91942660       0.00000000
Si       1.66408866       0.97759548      -1.74730500       0.00000000
Si      -0.79288317      -1.62878823      -1.93098452       0.00000000
Si       2.79818121      -2.29030884       1.29745311       0.00000000
Si      -2.08078686      -3.18788784      -0.61706714       0.00000000
Si      -1.26586332      -2.66330097       2.52448717       0.00000000
Si      -3.18950055      -1.98948141       1.22408421       0.00000000
Si       3.15049319       2.36346723      -0.41184687       0.00000000
Si      -2.71313208       2.74211199      -0.95756883       0.00000000
