10
Lattice="16.28999089631971 0.0 0.0 0.0 16.28999089631971 0.0 0.0 0.0 34.3005442915855" Properties=species:S:1:pos:R:3:initial_magmoms:R:1 pbc="T T T"
Si      -1.83032811      -1.35088083       0.12845561       0.00000000
Si       1.43702235      -1.07789301       1.42549712       0.00000000
Si      -0.09097965       1.56994875      -1.74576148       0.00000000
Si      -1.89418491       0.89485857       1.29916814       0.00000000
Si      -2.01621330       2.35189223      -0.57827320       0.00000000
Si       2.72709261      -2.43278118      -0.09130810       0.00000000
Si      -0.48694068      -0.16089633      -3.76232590       0.00000000
Si      -1.35410625      -3.32011377       1.40738642       0.00000000
Si      -3.54569769      -0.79257366      -1.40642600       0.00000000
Si       0.40099464      -2.67937920       2.85709973       0.00000000
