10
Lattice="16.28999089631971 0.0 0.0 0.0 16.28999089631971 0.0 0.0 0.0 34.3005442915855" Properties=species:S:1:pos:R:3:initial_magmoms:R:1 pbc="T T T"
Si       0.09097965      -1.56994875       1.74576148       0.00000000
Si      -1.92523365       0.78194348       1.16748828       0.00000000
Si       1.77440454       1.60275748      -0.05820806       0.00000000
Si      -0.39596103      -1.73084508      -2.01656443       0.00000000
Si      -1.80320526      -0.67509018       3.04492962       0.00000000
Si      -1.73934846      -2.92082958       1.87421709       0.00000000
Si       2.69462664       1.96560746       2.12622333       0.00000000
Si      -3.95143272      -0.02537982       0.27361559       0.00000000
Si       0.87118920       3.35103938      -1.94978123       0.00000000
Si      -2.04701769       3.03429662       1.84753125       0.00000000
