10
Lattice="16.28999089631971 0.0 0.0 0.0 16.28999089631971 0.0 0.0 0.0 34.3005442915855" Properties=species:S:1:pos:R:3:initial_magmoms:R:1 pbc="T T T"
Si      -1.40227578      -1.33385778      -1.29138191       0.00000000
Si       1.04105059       1.46614887      -1.49848872       0.00000000
Si       0.96193332      -1.89024273       0.99053167       0.00000000
Si      -1.21490820       1.06712532       1.71327884       0.00000000
Si      -2.43830349      -2.93534397       0.14022070       0.00000000
Si       1.45590150      -1.46390085       3.25519207       0.00000000
Si      -0.11220552      -2.68874595      -2.80818713       0.00000000
Si       3.17468384      -2.26813815       0.36008732       0.00000000
Si      -2.38032738       2.97435593       0.94830768       0.00000000
Si      -2.83929813      -0.25596477      -2.71687903       0.00000000
