10
Lattice="16.28999089631971 0.0 0.0 0.0 16.28999089631971 0.0 0.0 0.0 34.3005442915855" Properties=species:S:1:pos:R:3:initial_magmoms:R:1 pbc="T T T"
Si       0.95455165       1.84147047      -0.97753176       0.00000000
Si       1.24197241      -1.22857551       1.54181033       0.00000000
Si      -2.27604762      -0.57795291      -0.72826956       0.00000000
Si      -1.23967782       2.90466990      -0.14961906       0.00000000
Si      -3.10949289       1.46847834       0.24950230       0.00000000
Si       1.62336203       0.66345912      -2.97214382       0.00000000
Si      -1.46332323      -1.70228871      -2.70086067       0.00000000
Si      -0.52167978      -2.30993829       2.68566552       0.00000000
Si       2.02170140       0.27523584       3.31439485       0.00000000
Si      -0.06810102       1.42889364       3.64827653       0.00000000
