10
Lattice="16.28999089631971 0.0 0.0 0.0 16.28999089631971 0.0 0.0 0.0 34.3005442915855" Properties=species:S:1:pos:R:3:initial_magmoms:R:1 pbc="T T T"
Si      -0.62185446       0.08171064       2.21437578       0.00000000
Si       0.58823190      -2.21262183      -0.46161698       0.00000000
Si      -1.78616592       0.64290114      -1.38207260       0.00000000
Si       1.98439893       1.16833509      -0.60921231       0.00000000
Si       0.94850154      -1.70214210      -2.74308466       0.00000000
Si       0.50209038       2.06521362       2.76452251       0.00000000
Si      -0.88415604      -0.33510159      -3.36467947       0.00000000
Si      -1.42773705      -3.50182872       0.04503664       0.00000000
Si       2.70378162      -2.67691941       0.69619854       0.00000000
Si       3.68619894       0.94506435       0.98439187       0.00000000
