10
Lattice="16.28999089631971 0.0 0.0 0.0 16.28999089631971 0.0 0.0 0.0 34.3005442915855" Properties=species:S:1:pos:R:3:initial_magmoms:R:1 pbc="T T T"
Si       1.59814674      -0.37172151       1.62975697       0.00000000
Si      -0.01870092       2.22991271      -0.71996883       0.00000000
Si      -2.07646024      -0.84374055       0.80901309       0.00000000
Si       0.99036684      -0.38957535      -2.13256893       0.00000000
Si      -0.51499206      -2.33401491      -2.38862264       0.00000000
Si      -1.55932767       2.32641467      -2.48596764       0.00000000
Si       1.82834073      -2.65992894       1.90186334       0.00000000
Si       0.71327394       0.11766267       3.78136272       0.00000000
Si      -1.94222412      -3.18536289       1.12900305       0.00000000
Si       3.62102265       0.82540031       1.28647693       0.00000000
