10
Lattice="16.28999089631971 0.0 0.0 0.0 16.28999089631971 0.0 0.0 0.0 34.3005442915855" Properties=species:S:1:pos:R:3:initial_magmoms:R:1 pbc="T T T"
Si       1.65954538       1.41323473       0.82547736       0.00000000
Si      -1.04105059      -1.46614887       1.49848872       0.00000000
Si      -1.27670173       1.81344257      -0.83792846       0.00000000
Si       0.83508567      -0.83147418      -2.05786230       0.00000000
Si       0.71093307       3.11283071      -0.60691417       0.00000000
Si      -2.44332637      -2.80000665       0.20710680       0.00000000
Si       3.62481985       0.12992904       0.91448732       0.00000000
Si       0.96932179      -3.17309652      -1.73787235       0.00000000
Si      -2.25595879      -0.39902355       3.21176756       0.00000000
Si      -2.56269949       2.91308273       0.81048801       0.00000000
