10
Lattice="16.28999089631971 0.0 0.0 0.0 16.28999089631971 0.0 0.0 0.0 34.3005442915855" Properties=species:S:1:pos:R:3:initial_magmoms:R:1 pbc="T T T"
Si       0.62185446      -0.08171064      -2.21437578       0.00000000
Si      -2.21275052       0.37789542       0.63044436       0.00000000
Si       1.12394484       1.98350298       0.55014674       0.00000000
Si       0.76980024      -1.56113586       1.60039569       0.00000000
Si      -1.71878233       0.80423730       2.89510476       0.00000000
Si       0.17171289       2.31954939       2.67503234       0.00000000
Si      -0.98720658      -1.45046160       3.12711377       0.00000000
Si       3.31247376       1.22450301       0.91016545       0.00000000
Si       2.99604051      -0.85626756       1.92848058       0.00000000
Si       1.21008636      -2.29433247      -2.67599276       0.00000000
