10
Lattice="16.28999089631971 0.0 0.0 0.0 16.28999089631971 0.0 0.0 0.0 34.56954931742767" Properties=species:S:1:pos:R:3:initial_magmoms:R:1 pbc="T T T"
Si      -1.33353198      -1.35439947      -1.36833267       0.00000000
Si       1.31406543      -1.29930669       1.43947684       0.00000000
Si       1.37774304       1.36542780      -1.36432260       0.00000000
Si      -1.42636869       1.28472714       1.48742483       0.00000000
Si       1.90918800       0.61144515       2.84524835       0.00000000
Si       0.15078024       2.42791047       2.86599009       0.00000000
Si      -2.68563130      -2.71953242       0.01846015       0.00000000
Si      -2.69350589       2.71682991       0.00691391       0.00000000
Si      -2.69459895       0.00236205      -2.72650188       0.00000000
Si       2.73279411      -2.70134627       0.00995604       0.00000000
