10
Lattice="16.28999089631971 0.0 0.0 0.0 16.28999089631971 0.0 0.0 0.0 34.56954931742767" Properties=species:S:1:pos:R:3:initial_magmoms:R:1 pbc="T T T"
Si       1.24199847       1.50012166      -1.35128987       0.00000000
Si      -1.46531808      -1.35900858      -1.29027458       0.00000000
Si       0.26129160       0.40988084       2.36435108       0.00000000
Si       1.34881200      -1.61269275       1.64350643       0.00000000
Si       1.98695646       2.22292525       2.15309644       0.00000000
Si      -0.05538600      -2.62474158      -2.78177862       0.00000000
Si       2.66072715       0.09808209      -2.78081067       0.00000000
Si       1.83712104       3.41087351       0.05448164       0.00000000
Si      -2.75769826       0.07989593      -2.77230656       0.00000000
Si       2.96280891      -2.57811960       0.23839175       0.00000000
