10
Lattice="16.28999089631971 0.0 0.0 0.0 16.28999089631971 0.0 0.0 0.0 34.56954931742767" Properties=species:S:1:pos:R:3:initial_magmoms:R:1 pbc="T T T"
Si       1.95281262       1.23655924       0.60247844       0.00000000
Si       0.28461888      -1.86146386      -1.47463409       0.00000000
Si      -0.29527254      -1.59769618       1.78686643       0.00000000
Si      -1.94290830       1.10678984      -0.93922061       0.00000000
Si      -0.73249614      -3.29449516       0.12904820       0.00000000
Si      -1.54044756       3.42406189      -0.47868482       0.00000000
Si       2.75929794      -2.14419310      -1.46889554       0.00000000
Si       1.53595152       2.33631343       2.67578832       0.00000000
Si      -1.64325375      -1.68202951      -3.07651876       0.00000000
Si      -3.90035380      -0.26192039      -0.39015215       0.00000000
