10
Lattice="16.28999089631971 0.0 0.0 0.0 16.28999089631971 0.0 0.0 0.0 34.56954931742767" Properties=species:S:1:pos:R:3:initial_magmoms:R:1 pbc="T T T"
Si      -1.35778779      -1.35658233      -1.35775438       0.00000000
Si       1.35720135       1.35866745      -1.35716670       0.00000000
Si       1.35811359      -1.35576783       1.35917173       0.00000000
Si      -1.35899325       1.36326123       1.36211014       0.00000000
Si       2.71463076      -2.71321353      -0.00079510       0.00000000
Si      -2.71516833      -2.71362892      -0.00082967       0.00000000
Si      -0.00021177      -2.71412577      -2.71492107       0.00000000
Si       2.71503801       0.00118917      -2.71467909       0.00000000
Si      -2.71510317       0.00089595      -2.71512849       0.00000000
Si      -0.00013032       2.71590138      -2.71537048       0.00000000
