10
Lattice="16.28999089631971 0.0 0.0 0.0 16.28999089631971 0.0 0.0 0.0 34.56954931742767" Properties=species:S:1:pos:R:3:initial_magmoms:R:1 pbc="T T T"
Si      -1.35879777      -1.35487188      -1.37434777       0.00000000
Si       1.35778779       1.35690813      -1.37732075       0.00000000
Si       1.11676095      -1.50239412       1.47269819       0.00000000
Si      -1.36572102       1.34736219       1.50692207       0.00000000
Si       2.28887532       0.10635741       2.72473883       0.00000000
Si      -0.82735281      -2.10885453       2.83522317       0.00000000
Si       2.70304857       2.70902700       0.00283470       0.00000000
Si      -2.71523349       2.69801496      -0.01403524       0.00000000
Si       2.69899236      -2.72023452      -0.00307669       0.00000000
Si      -0.00001629       2.71151937      -2.73680361       0.00000000
