10
Lattice="16.28999089631971 0.0 0.0 0.0 16.28999089631971 0.0 0.0 0.0 34.56954931742767" Properties=species:S:1:pos:R:3:initial_magmoms:R:1 pbc="T T T"
Si       1.17211437       1.60875153       1.25204064       0.00000000
Si      -1.11676095       1.50239412      -1.47269819       0.00000000
Si      -1.94411376      -0.60646041       1.36252498       0.00000000
Si       1.58223141      -1.21784040      -1.47577489       0.00000000
Si       2.13871410      -0.12300579       2.50788393       0.00000000
Si      -2.53923633      -2.51721225      -0.04324653       0.00000000
Si       0.64306404      -2.11333428       2.94698659       0.00000000
Si      -2.47555872       0.14752224      -2.84704596       0.00000000
Si      -2.48248197       2.84975631       0.03422387       0.00000000
Si       0.24154812      -2.57150682      -2.84998438       0.00000000
