10
Lattice="16.28999089631971 0.0 0.0 0.0 16.28999089631971 0.0 0.0 0.0 34.56954931742767" Properties=species:S:1:pos:R:3:initial_magmoms:R:1 pbc="T T T"
Si      -2.33512263       0.25539462      -0.16506969       0.00000000
Si       0.40371507      -0.39537459       2.32788018       0.00000000
Si       0.81445113      -1.31388624      -1.89441236       0.00000000
Si       0.39558636       2.71410948      -0.12337879       0.00000000
Si      -2.39371776       2.07894609      -1.69180012       0.00000000
Si      -0.91121373      -3.12693066      -1.68315773       0.00000000
Si       0.81629190       1.80670761       3.15789553       0.00000000
Si      -3.14072829       0.71329023       2.05495344       0.00000000
Si      -1.79952372      -0.89254539       3.28282995       0.00000000
Si      -0.59873895       3.33927081       2.03932799       0.00000000
