10
Lattice="16.28999089631971 0.0 0.0 0.0 16.28999089631971 0.0 0.0 0.0 34.56954931742767" Properties=species:S:1:pos:R:3:initial_magmoms:R:1 pbc="T T T"
Si       1.35627282      -1.35607734      -1.35972484       0.00000000
Si      -1.35910728       1.35949824      -1.35906802       0.00000000
Si      -1.35894438      -1.36958175       1.36304352       0.00000000
Si       1.37435472       1.37031480       1.37351810       0.00000000
Si       2.71407690      -2.71068858      -0.00024199       0.00000000
Si       2.71399545       2.71371852      -0.00217788       0.00000000
Si      -2.71212210      -2.71593396      -0.00235073       0.00000000
Si      -0.00146610      -2.71254564      -2.71685697       0.00000000
Si      -2.71342530       2.71679733       0.00058768       0.00000000
Si       2.71417464       0.00268785      -2.71661498       0.00000000
