10
Lattice="16.28999089631971 0.0 0.0 0.0 16.28999089631971 0.0 0.0 0.0 34.56954931742767" Properties=species:S:1:pos:R:3:initial_magmoms:R:1 pbc="T T T"
Si      -1.35728280      -1.35545832      -1.35758153       0.00000000
Si       1.35808101       1.35633469      -1.35692471       0.00000000
Si      -1.35711990       1.35788777       1.35720126       0.00000000
Si       1.35744570      -1.35726651       1.35754696       0.00000000
Si       2.71311579      -0.00022806      -2.71063445       0.00000000
Si       2.71446786      -2.71467963      -0.00010371       0.00000000
Si      -2.71482624      -2.71464705      -0.00020742       0.00000000
Si      -2.71446623       0.00058644       2.71512849       0.00000000
Si       0.00000000       2.71562349       2.71402226       0.00000000
Si       2.71495656       2.71512665      -0.00006914       0.00000000
