10
Lattice="16.28999089631971 0.0 0.0 0.0 16.28999089631971 0.0 0.0 0.0 34.56954931742767" Properties=species:S:1:pos:R:3:initial_magmoms:R:1 pbc="T T T"
Si      -1.35431802       1.35729909       1.35965570       0.00000000
Si      -1.35694071      -1.35677781      -1.35768524       0.00000000
Si       1.35786924       1.35824391      -1.35761610       0.00000000
Si       1.35910728      -1.35949824       1.35906802       0.00000000
Si       0.00029322      -2.71384884      -2.71519763       0.00000000
Si      -2.71440270       0.00086337      -2.71537048       0.00000000
Si      -2.71404269       2.71609686      -0.00003457       0.00000000
Si       2.71489140       0.00083079      -2.71526677       0.00000000
Si       0.00042354       2.71551042      -2.71516306       0.00000000
Si       2.71538010      -2.71557558      -0.00065682       0.00000000
