10
Lattice="16.28999089631971 0.0 0.0 0.0 16.28999089631971 0.0 0.0 0.0 34.56954931742767" Properties=species:S:1:pos:R:3:initial_magmoms:R:1 pbc="T T T"
Si      -1.79336610       0.95035308       1.13872159       0.00000000
Si       0.96583410      -1.85026707       1.08161266       0.00000000
Si      -1.13114502       0.45439326      -2.03020163       0.00000000
Si       1.03465935       1.16426000      -2.29331061       0.00000000
Si      -0.36856125       2.17668513       2.54127610       0.00000000
Si       0.42362145       3.20120396      -0.97952873       0.00000000
Si       2.33166915      -0.41878332       2.53277544       0.00000000
Si       1.33475373       3.15526616       1.22071090       0.00000000
Si      -1.55116638      -1.60963119      -2.95856739       0.00000000
Si       3.14374194       1.49856827       1.32054615       0.00000000
