10
Lattice="16.28999089631971 0.0 0.0 0.0 16.28999089631971 0.0 0.0 0.0 34.56954931742767" Properties=species:S:1:pos:R:3:initial_magmoms:R:1 pbc="T T T"
Si       1.35697329      -1.35743049      -1.35737411       0.00000000
Si      -1.35777150       1.35746809      -1.35706299       0.00000000
Si       1.35707103       1.35838033       1.35706299       0.00000000
Si      -1.35718506      -1.35780516       1.35765067       0.00000000
Si      -0.00216657      -2.71417572      -2.71384942       0.00000000
Si      -2.71464705      -0.00132386      -2.71391856       0.00000000
Si       2.71471221       2.71471831       0.00034570       0.00000000
Si       2.71474479      -2.71503909       0.00038027       0.00000000
Si       2.71498914       0.00022698      -2.71485193       0.00000000
Si      -0.00039096       2.71579345      -2.71436796       0.00000000
