10
Lattice="16.28999089631971 0.0 0.0 0.0 16.28999089631971 0.0 0.0 0.0 34.56954931742767" Properties=species:S:1:pos:R:3:initial_magmoms:R:1 pbc="T T T"
Si      -1.35764118      -1.35633798       1.35671729       0.00000000
Si       1.35775521       1.35651717       1.35664815       0.00000000
Si       1.35715248      -1.35656930      -1.35758153       0.00000000
Si      -1.35723393       1.35806472      -1.35716670       0.00000000
Si       0.00004887       2.71498914      -2.71426425       0.00000000
Si      -2.71471221      -2.71471831      -0.00034570       0.00000000
Si       2.71485882      -2.71472766       0.00017285       0.00000000
Si       0.00027693      -2.71449134      -2.71519763       0.00000000
Si       2.71529865       0.00122175      -2.71440253       0.00000000
Si      -2.71510317       0.00107514      -2.71471366       0.00000000
