10
Lattice="16.28999089631971 0.0 0.0 0.0 16.28999089631971 0.0 0.0 0.0 34.56954931742767" Properties=species:S:1:pos:R:3:initial_magmoms:R:1 pbc="T T T"
Si      -1.31523831      -1.94889066      -0.44010518       0.00000000
Si      -0.82085310       1.82217008      -1.33908681       0.00000000
Si      -0.03494205       0.85247525       2.29382916       0.00000000
Si       2.06320995      -0.31234935      -1.34876629       0.00000000
Si      -0.02805138       0.34838120      -3.04965821       0.00000000
Si       0.19526823      -1.30569872       3.41267325       0.00000000
Si       1.96004538       2.25260075       2.26752172       0.00000000
Si       3.89575350      -0.49666418       0.38769771       0.00000000
Si      -3.25819548       2.14109570      -0.82493362       0.00000000
Si      -1.26325692      -3.68301003       1.14739855       0.00000000
