10
Lattice="16.28999089631971 0.0 0.0 0.0 16.28999089631971 0.0 0.0 0.0 34.56954931742767" Properties=species:S:1:pos:R:3:initial_magmoms:R:1 pbc="T T T"
Si      -1.48577832       1.60621029      -0.88708970       0.00000000
Si       0.05628195      -1.40307399      -1.95957600       0.00000000
Si       1.96123455       1.35755973       0.36916842       0.00000000
Si       0.90635931       0.40738032       2.35629637       0.00000000
Si       1.95105330      -0.34091712      -3.03666005       0.00000000
Si      -0.69243903      -1.14715809       3.44164254       0.00000000
Si      -0.77590899       3.62024073       0.01023259       0.00000000
Si      -1.24014141       1.61438787      -3.24348978       0.00000000
Si      -0.08140113      -3.18410204       2.12786066       0.00000000
Si       1.47874104       3.52893528      -0.49009277       0.00000000
