10
Lattice="16.28999089631971 0.0 0.0 0.0 16.28999089631971 0.0 0.0 0.0 34.56954931742767" Properties=species:S:1:pos:R:3:initial_magmoms:R:1 pbc="T T T"
Si       1.37704257      -0.77724477      -1.77774007       0.00000000
Si       1.21502223       1.63066158       1.27838265       0.00000000
Si      -2.06694036       1.14337881      -0.49970311       0.00000000
Si      -0.68233923      -2.29734612       0.59432002       0.00000000
Si       1.13871987       1.24745562      -2.94878420       0.00000000
Si      -1.01206512       2.09355822      -2.48683106       0.00000000
Si       2.52025848      -0.03137454       2.47784297       0.00000000
Si      -0.94561821      -2.11379529       2.88571794       0.00000000
Si      -3.66573870      -0.41115960       0.58564306       0.00000000
Si       0.32158089      -2.86515755      -2.41077801       0.00000000
