10
Lattice="16.28999089631971 0.0 0.0 0.0 16.28999089631971 0.0 0.0 0.0 34.56954931742767" Properties=species:S:1:pos:R:3:initial_magmoms:R:1 pbc="T T T"
Si       2.09577366      -1.07900073      -0.21097808       0.00000000
Si      -0.87021180       1.92212226      -1.07615067       0.00000000
Si      -0.01097946       0.21818826       2.35978789       0.00000000
Si      -1.50451182      -1.66540815      -0.89524812       0.00000000
Si       1.43811378      -2.92094361       1.17100957       0.00000000
Si       2.03747175      -1.37580453      -2.49236219       0.00000000
Si      -3.17892834       1.63328427      -0.53250964       0.00000000
Si      -2.25093591       0.15105717       2.94591493       0.00000000
Si       0.04248432      -2.77593003      -2.46605475       0.00000000
Si       0.94025880      -1.80424782       3.15274466       0.00000000
