10
Lattice="16.28999089631971 0.0 0.0 0.0 16.28999089631971 0.0 0.0 0.0 34.56954931742767" Properties=species:S:1:pos:R:3:initial_magmoms:R:1 pbc="T T T"
Si       1.35698958      -1.35697329       1.35761610       0.00000000
Si      -1.35729909      -1.35689184      -1.35782352       0.00000000
Si       1.35900954       1.35710361      -1.35678643       0.00000000
Si      -1.35765747       1.35765747       1.35789266       0.00000000
Si       2.71226871       0.00236205      -2.71222465       0.00000000
Si       0.00039096      -2.71275741      -2.71464452       0.00000000
Si      -0.00099369      -2.71368594       2.71412597       0.00000000
Si       2.71402803      -2.71459818       0.00024199       0.00000000
Si       2.71456560       2.71472850       0.00006914       0.00000000
Si      -2.71547784      -2.71485882      -0.00024199       0.00000000
