10
Lattice="16.28999089631971 0.0 0.0 0.0 16.28999089631971 0.0 0.0 0.0 34.56954931742767" Properties=species:S:1:pos:R:3:initial_magmoms:R:1 pbc="T T T"
Si       1.35765747      -1.35765747      -1.35789266       0.00000000
Si       1.35715248       1.35900954       1.35727040       0.00000000
Si      -1.35790182      -1.35876519       1.35689014       0.00000000
Si      -1.35839052       1.35764118      -1.35771981       0.00000000
Si      -0.00017919       2.71103067       2.71443710       0.00000000
Si       2.71464705      -2.71463076      -0.00027656       0.00000000
Si       2.71461447       2.71494027      -0.00024199       0.00000000
Si      -0.00009774      -2.71337643       2.71637299       0.00000000
Si      -2.71557558       0.00001629      -2.71460995       0.00000000
Si       0.00035838      -2.71454931      -2.71571617       0.00000000
