10
Lattice="16.28999089631971 0.0 0.0 0.0 16.28999089631971 0.0 0.0 0.0 34.56954931742767" Properties=species:S:1:pos:R:3:initial_magmoms:R:1 pbc="T T T"
Si      -0.18401184      -1.05528249       2.12986569       0.00000000
Si      -0.99787653      -1.70606799      -1.33687436       0.00000000
Si       1.74237840       0.93548583      -1.33531873       0.00000000
Si      -1.66881276       2.00992536       0.04615037       0.00000000
Si      -2.25712611      -0.28074186      -2.78253915       0.00000000
Si      -1.47523869       0.65726892       3.31020904       0.00000000
Si       0.48309624       2.44115424      -2.78202061       0.00000000
Si       3.18158361       2.06234658       0.11176342       0.00000000
Si       1.91251116       2.52923427       2.24781706       0.00000000
Si      -2.67129936      -2.88341145      -0.06063502       0.00000000
