10
Lattice="16.28999089631971 0.0 0.0 0.0 16.28999089631971 0.0 0.0 0.0 34.56954931742767" Properties=species:S:1:pos:R:3:initial_magmoms:R:1 pbc="T T T"
Si      -0.92746854       1.90589742       1.26455482       0.00000000
Si       1.67528152      -1.00698264       1.51546075       0.00000000
Si       0.94311118       0.20667123      -2.34938245       0.00000000
Si      -1.81880035      -1.76200785      -0.22300829       0.00000000
Si       0.87685975       2.52328842      -2.02484334       0.00000000
Si      -1.12119739       3.23594334      -0.85497457       0.00000000
Si       0.29394816      -2.34811228       2.82150739       0.00000000
Si      -2.36137138       0.58117833       2.78636051       0.00000000
Si       2.45242855      -2.82811342       0.08842896       0.00000000
Si      -3.57321706      -0.81925668       1.29646253       0.00000000
