10
Lattice="16.28999089631971 0.0 0.0 0.0 16.28999089631971 0.0 0.0 0.0 34.56954931742767" Properties=species:S:1:pos:R:3:initial_magmoms:R:1 pbc="T T T"
Si       1.19338911      -0.04663827       2.05405463       0.00000000
Si      -2.32430607      -0.22885821       0.59058651       0.00000000
Si       0.60663960       2.24800371      -0.73806029       0.00000000
Si       1.09082727      -1.55481534      -1.59915368       0.00000000
Si       3.29289318      -0.64878183       1.19600337       0.00000000
Si       0.77219487       1.81693773      -3.00136452       0.00000000
Si       2.75001264      -2.55637341      -0.17640851       0.00000000
Si       0.83673585       1.98337266       3.23737096       0.00000000
Si       1.96568172      -0.15677496      -3.35673968       0.00000000
Si      -3.61685241       1.50632001      -0.33162587       0.00000000
