10
Lattice="16.28999089631971 0.0 0.0 0.0 16.28999089631971 0.0 0.0 0.0 34.56954931742767" Properties=species:S:1:pos:R:3:initial_magmoms:R:1 pbc="T T T"
Si       0.12608460       0.03196098       2.37568990       0.00000000
Si      -0.90368775       1.90197153      -1.15006041       0.00000000
Si       2.36149614       0.31938174      -0.28931272       0.00000000
Si      -0.60417981      -2.17908072      -0.80951559       0.00000000
Si      -0.59451984       1.22477994      -3.36475982       0.00000000
Si       0.67474809       2.33937432       2.72007194       0.00000000
Si       0.86400531       3.60209125      -1.09948513       0.00000000
Si       1.48440996      -1.84318092       3.13888226       0.00000000
Si       0.68836653      -3.91425894       0.11269679       0.00000000
Si      -2.93425254      -2.57701284      -0.77356324       0.00000000
