10
Lattice="16.28999089631971 0.0 0.0 0.0 16.28999089631971 0.0 0.0 0.0 34.56954931742767" Properties=species:S:1:pos:R:3:initial_magmoms:R:1 pbc="T T T"
Si      -2.28771873       0.07929972      -0.27714423       0.00000000
Si       0.69113583      -0.26052597       2.20588417       0.00000000
Si       0.82878633       1.91974622      -1.03148679       0.00000000
Si       0.65632410      -1.86696432      -1.27444172       0.00000000
Si       1.96708266       0.94283262      -2.80753295       0.00000000
Si      -2.83638222      -2.22811362      -0.62152627       0.00000000
Si       2.70514998      -1.25025750      -2.15689910       0.00000000
Si       3.04360731       0.04212594       2.14715048       0.00000000
Si      -2.66061312       1.80017273      -1.89738534       0.00000000
Si      -0.93304233       3.35517704      -1.57848107       0.00000000
