10
Lattice="16.28999089631971 0.0 0.0 0.0 16.28999089631971 0.0 0.0 0.0 34.56954931742767" Properties=species:S:1:pos:R:3:initial_magmoms:R:1 pbc="T T T"
Si       1.35635427       1.35709788       1.35657901       0.00000000
Si      -1.35713619      -1.35774695       1.35778895       0.00000000
Si      -1.35770634       1.35815836      -1.35775438       0.00000000
Si       1.35834165      -1.35764921      -1.35768524       0.00000000
Si      -2.71485882       2.71472766      -0.00017285       0.00000000
Si      -2.71482624      -2.71502975      -0.00013828       0.00000000
Si      -2.71458189       0.00023632      -2.71537048       0.00000000
Si       0.00086337      -2.71458992      -2.71537048       0.00000000
Si       2.71531009       2.71503717      -0.00013828       0.00000000
Si       2.71519492      -2.71520894      -0.00027656       0.00000000
