10
Lattice="16.28999089631971 0.0 0.0 0.0 16.28999089631971 0.0 0.0 0.0 34.56954931742767" Properties=species:S:1:pos:R:3:initial_magmoms:R:1 pbc="T T T"
Si      -1.35537687       1.35492075      -1.36010511       0.00000000
Si       1.35808101      -1.35922620      -1.36000140       0.00000000
Si      -1.35210258      -1.35845894       1.37801214       0.00000000
Si       1.35426915       1.36058967       1.37825413       0.00000000
Si      -2.71375110      -2.71589230       0.00082967       0.00000000
Si      -2.71313208      -0.00159642      -2.71675326       0.00000000
Si       2.71553366       2.71469592      -0.00072596       0.00000000
Si       0.00192222       2.71393029      -2.71689154       0.00000000
Si      -2.71523349       2.71583622       0.00207417       0.00000000
Si       2.71529866      -2.71587712       0.00266186       0.00000000
