10
Lattice="16.28999089631971 0.0 0.0 0.0 16.28999089631971 0.0 0.0 0.0 34.56954931742767" Properties=species:S:1:pos:R:3:initial_magmoms:R:1 pbc="T T T"
Si      -0.08886195       0.46519353       2.25193084       0.00000000
Si       0.94631868       1.83084939      -1.16575499       0.00000000
Si       1.47268116      -1.59576840      -0.97444700       0.00000000
Si      -2.24982819      -0.38718072      -0.69194449       0.00000000
Si      -1.75197321      -1.50387651      -2.67367958       0.00000000
Si       0.00985545      -2.93930733      -2.12668529       0.00000000
Si       1.49040468       2.21451147       2.52568725       0.00000000
Si       1.04241339       1.18260513      -3.39127468       0.00000000
Si      -2.23964694       1.31129613       2.71388399       0.00000000
Si       0.14946075      -1.55950686       3.42297498       0.00000000
