10
Lattice="16.28999089631971 0.0 0.0 0.0 16.28999089631971 0.0 0.0 0.0 34.56954931742767" Properties=species:S:1:pos:R:3:initial_magmoms:R:1 pbc="T T T"
Si       0.08886195      -0.46519353      -2.25193084       0.00000000
Si       0.23832270      -2.02470039       1.17104414       0.00000000
Si      -2.15078499       0.84610260       0.46195315       0.00000000
Si       1.57926663       1.74931794       0.27375641       0.00000000
Si      -1.13871987      -1.24745562       2.94878420       0.00000000
Si       1.60259391       2.04234246       2.66081970       0.00000000
Si       2.61272052      -2.27245500       1.38914355       0.00000000
Si      -2.16096624      -0.85237425      -2.94387533       0.00000000
Si       1.03518063       1.36565586      -3.41768583       0.00000000
Si       3.63025908       1.18804599      -0.67344977       0.00000000
