10
Lattice="16.28999089631971 0.0 0.0 0.0 16.28999089631971 0.0 0.0 0.0 34.56954931742767" Properties=species:S:1:pos:R:3:initial_magmoms:R:1 pbc="T T T"
Si      -1.35653346      -1.35728280       1.35699385       0.00000000
Si       1.35820711       1.35725022       1.35695928       0.00000000
Si      -1.35622395       1.35674523      -1.35958656       0.00000000
Si       1.35780964      -1.35887922      -1.36096935       0.00000000
Si      -2.71393029      -2.71391400      -0.00006914       0.00000000
Si      -2.71417464       0.00039096       2.71419511       0.00000000
Si       0.00093997      -2.71482624       2.71436796       0.00000000
Si       0.00045611       2.71510317       2.71429882       0.00000000
Si       2.71563164      -2.71428867      -0.00065682       0.00000000
Si       2.71587599       0.00016290       2.71426425       0.00000000
