10
Lattice="16.28999089631971 0.0 0.0 0.0 16.28999089631971 0.0 0.0 0.0 34.56954931742767" Properties=species:S:1:pos:R:3:initial_magmoms:R:1 pbc="T T T"
Si      -1.35621481      -1.35676152      -1.35740868       0.00000000
Si       1.35872121       1.35822762      -1.35751239       0.00000000
Si      -1.35771798       1.35922131       1.35858405       0.00000000
Si       1.36106697      -1.35676152       1.35816921       0.00000000
Si       2.69459895      -0.00236205       2.72650188       0.00000000
Si      -2.71298777       2.71518462      -0.00006914       0.00000000
Si      -2.71368824       0.00078192      -2.71478279       0.00000000
Si       0.00105722      -2.71419256      -2.71499021       0.00000000
Si       2.71395147       2.71531494      -0.00103709       0.00000000
Si      -2.71517063      -2.71470081      -0.00069139       0.00000000
