10
Lattice="16.28999089631971 0.0 0.0 0.0 16.28999089631971 0.0 0.0 0.0 34.56954931742767" Properties=species:S:1:pos:R:3:initial_magmoms:R:1 pbc="T T T"
Si       1.35526979      -1.35596331       1.35865319       0.00000000
Si       1.35628910       1.35798327      -1.35740868       0.00000000
Si      -1.35834165      -1.35672894      -1.35751239       0.00000000
Si      -1.35997065       1.35998694       1.35858405       0.00000000
Si       2.71384299       2.71350675      -0.00055311       0.00000000
Si       2.71298777      -2.71518462       0.00006914       0.00000000
Si       2.71404010       0.00013032      -2.71474823       0.00000000
Si      -0.00070047      -2.71440270      -2.71471366       0.00000000
Si      -2.71423980       2.71668330      -0.00013828       0.00000000
Si      -2.71629234       0.00078192      -2.71474823       0.00000000
