10
Lattice="16.28999089631971 0.0 0.0 0.0 16.28999089631971 0.0 0.0 0.0 34.56954931742767" Properties=species:S:1:pos:R:3:initial_magmoms:R:1 pbc="T T T"
Si       2.05099245      -0.56127195      -0.94720618       0.00000000
Si      -1.57926663      -1.74931794      -0.27375641       0.00000000
Si       0.02332728       0.29302452       2.38706328       0.00000000
Si      -0.51504093       2.02841451      -1.21211279       0.00000000
Si      -1.49040468      -2.21451147      -2.52568725       0.00000000
Si      -0.35181513       2.65386906       2.56533855       0.00000000
Si      -1.40305770       3.40330680       0.51035054       0.00000000
Si       1.79543493      -0.21893760      -3.25202846       0.00000000
Si      -0.54408600      -0.38366208      -3.69144225       0.00000000
Si       2.64405175      -2.67744069      -0.11843534       0.00000000
