10
Lattice="16.28999089631971 0.0 0.0 0.0 16.28999089631971 0.0 0.0 0.0 34.56954931742767" Properties=species:S:1:pos:R:3:initial_magmoms:R:1 pbc="T T T"
Si      -0.88801677       1.37489229       1.72246333       0.00000000
Si      -1.07127927      -0.35860806      -2.09073294       0.00000000
Si       1.87940988       1.18275174      -0.90458190       0.00000000
Si       0.51504093      -2.02841451       1.21211279       0.00000000
Si      -0.02904507      -2.41207659      -2.47932946       0.00000000
Si       0.80060463       3.31716528      -0.90703634       0.00000000
Si       2.56603338      -2.58968646       0.26490660       0.00000000
Si       3.43555841       1.03781961       0.80899705       0.00000000
Si      -0.14587695       3.54403611       1.24844540       0.00000000
Si      -3.20886936       1.30798926       1.58518757       0.00000000
