10
Lattice="16.28999089631971 0.0 0.0 0.0 16.28999089631971 0.0 0.0 0.0 34.56954931742767" Properties=species:S:1:pos:R:3:initial_magmoms:R:1 pbc="T T T"
Si      -2.31046676      -0.38804409      -0.32239580       0.00000000
Si       0.80560566      -0.45789561      -2.22002313       0.00000000
Si       0.24610932       2.30285214       0.67929202       0.00000000
Si       1.34120457      -1.60583562       1.22787651       0.00000000
Si       2.54198934       2.62598058      -0.01562545       0.00000000
Si      -2.56400432      -0.10951767      -2.65376751       0.00000000
Si       3.54444336      -1.10866482       0.27292674       0.00000000
Si       3.14072829      -0.71329023      -2.05495344       0.00000000
Si       0.90034830      -1.29383325       3.56574730       0.00000000
Si      -0.98160445      -1.65104037      -3.42238730       0.00000000
