10
Lattice="16.28999089631971 0.0 0.0 0.0 16.28999089631971 0.0 0.0 0.0 34.56954931742767" Properties=species:S:1:pos:R:3:initial_magmoms:R:1 pbc="T T T"
Si       1.35722794       1.35601218      -1.35720126       0.00000000
Si      -1.35791811      -1.35860229      -1.35727040       0.00000000
Si      -1.35899325       1.35552348       1.35948286       0.00000000
Si       1.35884664      -1.35747828       1.35917173       0.00000000
Si       2.70128178       0.00311139       2.71644213       0.00000000
Si       0.00037467       2.71357191      -2.71460995       0.00000000
Si      -2.71510317       2.71347417       0.00086424       0.00000000
Si      -2.71366965      -2.71510317       0.00013828       0.00000000
Si       2.71525860       2.71415835       0.00069139       0.00000000
Si       2.71489859      -0.00107514      -2.71464452       0.00000000
