10
Lattice="16.28999089631971 0.0 0.0 0.0 16.28999089631971 0.0 0.0 0.0 34.56954931742767" Properties=species:S:1:pos:R:3:initial_magmoms:R:1 pbc="T T T"
Si       2.04882588       0.61670682      -0.88245738       0.00000000
Si       0.23061753      -2.09513835       1.03670679       0.00000000
Si      -0.65632410       1.86696432       1.27444172       0.00000000
Si      -1.25729478      -0.07372854      -2.01208717       0.00000000
Si      -2.13438096      -2.23629120       1.41610781       0.00000000
Si       1.31075856       2.80979694      -1.53309123       0.00000000
Si       0.00052128      -1.83050730      -2.93872446       0.00000000
Si      -0.61468686       2.09463336      -2.80857003       0.00000000
Si      -3.49270632      -0.36114930       0.65291544       0.00000000
Si       2.19242223      -0.94209957      -2.66804474       0.00000000
