10
Lattice="16.28999089631971 0.0 0.0 0.0 16.28999089631971 0.0 0.0 0.0 34.56954931742767" Properties=species:S:1:pos:R:3:initial_magmoms:R:1 pbc="T T T"
Si      -1.71283227      -1.46341215      -0.55674290       0.00000000
Si      -0.84330724       2.16409392      -0.01265246       0.00000000
Si       2.09497871      -0.20437434      -1.02761500       0.00000000
Si       0.48852407      -0.58774320       2.22202816       0.00000000
Si       2.97476903       1.76013450       0.07930259       0.00000000
Si       0.55477550      -2.90436039       1.89748905       0.00000000
Si       1.23395447       3.32050473      -0.17907037       0.00000000
Si      -1.81984128       2.22778782       2.20118271       0.00000000
Si      -1.96838979      -1.12107780      -2.86156518       0.00000000
Si      -1.50953307       0.12491172       3.39189694       0.00000000
