10
Lattice="16.28999089631971 0.0 0.0 0.0 16.28999089631971 0.0 0.0 0.0 34.56954931742767" Properties=species:S:1:pos:R:3:initial_magmoms:R:1 pbc="T T T"
Si      -1.00383867       1.32124932       1.76232204       0.00000000
Si       1.29456630       1.46768013      -1.43079988       0.00000000
Si      -1.74868263      -0.84795966      -1.65048948       0.00000000
Si       1.48603896      -1.50899157       1.60095129       0.00000000
Si       2.12542146      -2.88212454      -0.23185810       0.00000000
Si      -3.74673977      -0.13530474      -0.48062071       0.00000000
Si       3.54113649       0.54563355      -1.38900527       0.00000000
Si      -2.26932080      -0.12512349       3.13988620       0.00000000
Si       1.64338407       3.71802960      -0.23828804       0.00000000
Si      -1.68243120      -3.16457685      -1.97502860       0.00000000
