10
Lattice="16.28999089631971 0.0 0.0 0.0 16.28999089631971 0.0 0.0 0.0 34.56954931742767" Properties=species:S:1:pos:R:3:initial_magmoms:R:1 pbc="T T T"
Si       1.36761066      -1.24944300      -1.42941709       0.00000000
Si       1.31949326       1.40115177       1.48891132       0.00000000
Si      -1.62618902       1.35330804      -1.23029638       0.00000000
Si      -0.48409712      -1.24245459       2.13892292       0.00000000
Si      -0.70526645       2.66567931       1.52123387       0.00000000
Si       0.23161448      -3.20566023       1.00915485       0.00000000
Si      -2.89526147       1.82019573       0.90575727       0.00000000
Si      -0.28182419      -2.35825443      -2.72601790       0.00000000
Si       3.29649327      -1.48804263       0.34465860       0.00000000
Si       2.71935486       2.48215617      -0.15646187       0.00000000
