10
Lattice="16.28999089631971 0.0 0.0 0.0 16.28999089631971 0.0 0.0 0.0 34.56954931742767" Properties=species:S:1:pos:R:3:initial_magmoms:R:1 pbc="T T T"
Si      -1.35771774       1.35260757      -1.35785809       0.00000000
Si       1.35728280       1.35545832       1.35758153       0.00000000
Si      -1.35754344      -1.35918873       1.35737411       0.00000000
Si       1.35610992      -1.35964485      -1.36200643       0.00000000
Si       2.71536381       2.71179301       0.00065682       0.00000000
Si      -2.71360410       2.71382567      -0.00024199       0.00000000
Si       0.00016290       2.71334609       2.71478279       0.00000000
Si      -0.00105885       2.70239811      -2.72585197       0.00000000
Si       2.70987408       0.01409085      -2.71863039       0.00000000
Si       2.71472850      -0.00180819       2.71512849       0.00000000
