10
Lattice="16.28999089631971 0.0 0.0 0.0 16.28999089631971 0.0 0.0 0.0 34.56954931742767" Properties=species:S:1:pos:R:3:initial_magmoms:R:1 pbc="T T T"
Si      -1.34985456      -1.36112724      -1.37545400       0.00000000
Si       1.36008468       1.35701996      -1.37545400       0.00000000
Si       1.46592081      -1.30593672       1.39298077       0.00000000
Si      -1.40993208       1.26573300       1.49150404       0.00000000
Si      -2.52588179      -0.35300430       2.82412634       0.00000000
Si      -2.70231226       2.70463752       0.00947206       0.00000000
Si       0.05538600       2.62474158       2.78177862       0.00000000
Si      -2.72355605      -2.71337643      -0.01939353       0.00000000
Si       2.71611315       2.72282367       0.00096795       0.00000000
Si      -2.70957923      -0.00232947      -2.73514427       0.00000000
