10
Lattice="16.28999089631971 0.0 0.0 0.0 16.28999089631971 0.0 0.0 0.0 34.56954931742767" Properties=species:S:1:pos:R:3:initial_magmoms:R:1 pbc="T T T"
Si       1.35734633       1.35730133      -1.35792723       0.00000000
Si      -1.35803065      -1.35814617      -1.35789266       0.00000000
Si       1.35972467      -1.35879777       1.35969027       0.00000000
Si      -1.35965366       1.35750973       1.36162617       0.00000000
Si      -0.01397682      -2.71104696       2.71575074       0.00000000
Si      -2.71525860      -2.71415835      -0.00069139       0.00000000
Si       2.71446623       2.71503705      -0.00110623       0.00000000
Si       2.71446623      -0.00058644      -2.71512849       0.00000000
Si      -0.00064346       2.71466890      -2.71533591       0.00000000
Si       2.71404269      -2.71609686       0.00003457       0.00000000
