10
Lattice="16.28999089631971 0.0 0.0 0.0 16.28999089631971 0.0 0.0 0.0 34.56954931742767" Properties=species:S:1:pos:R:3:initial_magmoms:R:1 pbc="T T T"
Si      -0.94035395      -1.96765281       0.80018181       0.00000000
Si      -1.43912117       1.83483297       0.11691428       0.00000000
Si       1.04121445      -0.53962254      -2.02539646       0.00000000
Si       2.48426735      -2.15117595      -0.87751393       0.00000000
Si       0.11902777       2.95434530       1.77587331       0.00000000
Si       1.08440575      -3.23218035       0.76785926       0.00000000
Si      -1.54354007      -1.26017811       2.90384377       0.00000000
Si      -0.57190673      -1.68547743      -3.39825774       0.00000000
Si       0.67251799      -0.40739661       3.76649278       0.00000000
Si       2.89265765      -0.02370195       2.66476063       0.00000000
