10
Lattice="16.28999089631971 0.0 0.0 0.0 16.28999089631971 0.0 0.0 0.0 34.5300574570662" Properties=species:S:1:pos:R:3:initial_magmoms:R:1 pbc="T T T"
Si       0.32858559       2.20352454      -0.76784532       0.00000000
Si       2.22451353      -0.83201175       0.18957012       0.00000000
Si      -1.26391829      -0.93054996      -1.79556399       0.00000000
Si      -1.31141016      -0.38604042       1.95602526       0.00000000
Si       2.76061743      -1.33336908      -2.08344124       0.00000000
Si       1.75272255       2.12852700      -2.61831213       0.00000000
Si      -1.15037699      -2.71547784       2.47794737       0.00000000
Si      -3.49826840      -0.26650440      -1.61200210       0.00000000
Si      -1.56821712       3.13397187      -1.83230399       0.00000000
Si      -1.41409743      -3.25264059      -1.79663442       0.00000000
