10
Lattice="16.28999089631971 0.0 0.0 0.0 16.28999089631971 0.0 0.0 0.0 34.5300574570662" Properties=species:S:1:pos:R:3:initial_magmoms:R:1 pbc="T T T"
Si       1.35754344      -1.35754598       1.35692843       0.00000000
Si      -1.35769005       1.35745873       1.35706655       0.00000000
Si       1.35495333       1.36022803      -1.35713561       0.00000000
Si      -1.35889551      -1.35792811      -1.35748091       0.00000000
Si       0.00118917       2.71189078      -2.71150881       0.00000000
Si      -0.00143352       2.71257496       2.71302813       0.00000000
Si       2.71399545      -0.00147099       2.71482369       0.00000000
Si       2.71500543       2.71410622      -0.00013812       0.00000000
Si      -2.71528236       2.71477411      -0.00110496       0.00000000
Si      -0.00050499      -2.71543941       2.71503088       0.00000000
