10
Lattice="16.28999089631971 0.0 0.0 0.0 16.28999089631971 0.0 0.0 0.0 34.5300574570662" Properties=species:S:1:pos:R:3:initial_magmoms:R:1 pbc="T T T"
Si      -1.34760654      -1.36859525      -1.37882049       0.00000000
Si       1.37152026       1.34954505      -1.38282598       0.00000000
Si       1.31038389      -1.44470213       1.38386189       0.00000000
Si      -1.43198874       1.32892191       1.41832290       0.00000000
Si       2.71275741       2.68320735       0.00728585       0.00000000
Si      -2.70238068       2.70642060      -0.00877064       0.00000000
Si      -2.69571807      -0.20013568       2.72007227       0.00000000
Si       2.72025081      -2.71942721      -0.01968214       0.00000000
Si      -2.70392823      -0.01002975      -2.73989253       0.00000000
Si       0.00979029       2.70202230      -2.74251682       0.00000000
