10
Lattice="16.28999089631971 0.0 0.0 0.0 16.28999089631971 0.0 0.0 0.0 34.5300574570662" Properties=species:S:1:pos:R:3:initial_magmoms:R:1 pbc="T T T"
Si      -0.64946601      -1.35784806      -1.78410001       0.00000000
Si       1.90685853       1.34516304      -0.44384961       0.00000000
Si       1.07290827      -1.16484414       1.85999711       0.00000000
Si      -2.07502020       1.38212505      -0.04806587       0.00000000
Si       1.98801531      -2.50036513      -1.09847080       0.00000000
Si       3.18295197      -0.52729101      -1.32046467       0.00000000
Si       1.94522148       0.74401317       2.97455893       0.00000000
Si      -0.72526338      -1.12073571       3.40504540       0.00000000
Si      -1.79313804       2.37615714       2.19528416       0.00000000
Si      -0.26741664       1.18640070       3.60017486       0.00000000
