10
Lattice="16.28999089631971 0.0 0.0 0.0 16.28999089631971 0.0 0.0 0.0 34.5300574570662" Properties=species:S:1:pos:R:3:initial_magmoms:R:1 pbc="T T T"
Si       1.39918068      -1.27019646       1.40939688       0.00000000
Si      -1.26355014       1.43669655       1.40445908       0.00000000
Si       1.78388532       0.99803943      -1.27970985       0.00000000
Si      -1.73231118      -0.37651077      -1.72516549       0.00000000
Si      -0.07447788       1.67562198      -2.76068796       0.00000000
Si      -2.39261004      -2.42637921       0.06196422       0.00000000
Si       2.63739987      -2.66846490       0.03519996       0.00000000
Si      -2.45449575       2.90634777       0.07527557       0.00000000
Si       0.07312581      -2.63143773       2.75094906       0.00000000
Si      -2.64823272       0.08843841       2.74559690       0.00000000
