10
Lattice="16.28999089631971 0.0 0.0 0.0 16.28999089631971 0.0 0.0 0.0 34.5300574570662" Properties=species:S:1:pos:R:3:initial_magmoms:R:1 pbc="T T T"
Si       1.35622395       1.35858600      -1.35623782       0.00000000
Si      -1.35772263       1.35736425       1.35710108       0.00000000
Si       1.35703845      -1.35754344       1.35779168       0.00000000
Si      -1.35697329      -1.35951453      -1.35848228       0.00000000
Si       2.71251306       0.00001629       2.71534165       0.00000000
Si       0.00332316       2.71350675      -2.71458198       0.00000000
Si       0.00135207      -2.71775844      -2.71123257       0.00000000
Si      -0.00017919       2.71479366       2.71513447       0.00000000
Si       2.71523349       2.71476108       0.00013812       0.00000000
Si      -2.71511946      -2.71487511      -0.00082872       0.00000000
