10
Lattice="16.28999089631971 0.0 0.0 0.0 16.28999089631971 0.0 0.0 0.0 34.5300574570662" Properties=species:S:1:pos:R:3:initial_magmoms:R:1 pbc="T T T"
Si      -2.05680798      -0.64208664      -0.95765715       0.00000000
Si       1.93354155      -0.73669896      -1.15758629       0.00000000
Si      -0.20489562      -0.99408096       2.20163769       0.00000000
Si      -0.10995750       2.43489888       0.17306474       0.00000000
Si      -2.28960837       0.01029528       2.67186828       0.00000000
Si      -3.55326765       0.18151947       0.65703830       0.00000000
Si       0.16465932       2.67729408       2.48295423       0.00000000
Si      -2.42321895      -2.95992558      -0.73984142       0.00000000
Si       1.80921627      -0.18529875      -3.46502414       0.00000000
Si      -2.33735436       0.01207089      -3.20963969       0.00000000
