10
Lattice="16.28999089631971 0.0 0.0 0.0 16.28999089631971 0.0 0.0 0.0 34.5300574570662" Properties=species:S:1:pos:R:3:initial_magmoms:R:1 pbc="T T T"
Si       1.35772263      -1.35736425      -1.35710108       0.00000000
Si      -1.35770634       1.35773892      -1.35685937       0.00000000
Si       1.35754344       1.35742941       1.35803339       0.00000000
Si      -1.35860229      -1.35812988       1.35751544       0.00000000
Si       0.00146610      -2.71215468       2.71475463       0.00000000
Si      -0.00096111       2.71261080      -2.71454745       0.00000000
Si       2.71394658       0.00122175      -2.71333890       0.00000000
Si      -2.71290402       0.00167787      -2.71496181       0.00000000
Si       2.71476108      -2.71490769       0.00069060       0.00000000
Si      -2.71534752      -2.71446786      -0.00024171       0.00000000
