10
Lattice="16.28999089631971 0.0 0.0 0.0 16.28999089631971 0.0 0.0 0.0 34.5300574570662" Properties=species:S:1:pos:R:3:initial_magmoms:R:1 pbc="T T T"
Si      -1.35514881       1.35635427      -1.35820604       0.00000000
Si       1.36071999      -1.36011726      -1.35754997       0.00000000
Si       1.37375199       1.35674523       1.35837869       0.00000000
Si      -1.38906459      -1.34843733       1.36262589       0.00000000
Si       2.68293042      -0.05872545       2.68982392       0.00000000
Si      -0.04772970      -2.70637173       2.67963755       0.00000000
Si      -2.70979263       2.71023246      -0.00348754       0.00000000
Si      -2.71186146      -0.00206883      -2.71513447       0.00000000
Si       0.00345348       2.71223613      -2.71496181       0.00000000
Si       2.71955034       2.70918990       0.00000000       0.00000000
