10
Lattice="16.28999089631971 0.0 0.0 0.0 16.28999089631971 0.0 0.0 0.0 34.5300574570662" Properties=species:S:1:pos:R:3:initial_magmoms:R:1 pbc="T T T"
Si       0.82507221       0.21046680      -2.16372367       0.00000000
Si      -2.02377186       1.33004592       0.01736863       0.00000000
Si      -0.16863408      -2.40875343       0.38072863       0.00000000
Si       1.71900225       1.19395926       1.42357147       0.00000000
Si       2.66703138      -1.26503253      -1.76393444       0.00000000
Si       1.96045263      -3.20882049      -0.44630124       0.00000000
Si       0.90108135       2.64639195      -2.58067435       0.00000000
Si      -0.43373754      -2.56800447       2.82856577       0.00000000
Si      -3.80421999      -0.20365758       0.55921459       0.00000000
Si      -1.45399653       3.28952115       1.44995245       0.00000000
