10
Lattice="16.28999089631971 0.0 0.0 0.0 16.28999089631971 0.0 0.0 0.0 34.5300574570662" Properties=species:S:1:pos:R:3:initial_magmoms:R:1 pbc="T T T"
Si      -1.35464382       1.35387819       1.35471850       0.00000000
Si       1.35514881      -1.35635427       1.35820604       0.00000000
Si       1.35860229       1.35588186      -1.35675578       0.00000000
Si      -1.35671265      -1.35842310      -1.35692843       0.00000000
Si       0.01917333       2.67755472       2.72466477       0.00000000
Si      -0.03391578      -2.70479160       2.72083193       0.00000000
Si      -2.71306366       2.71379997       0.00017265       0.00000000
Si      -2.69044663       0.00705357       2.73692294       0.00000000
Si      -2.71429030      -0.00052128      -2.71444386       0.00000000
Si      -0.00060273       2.71463076      -2.71416762       0.00000000
