10
Lattice="16.28999089631971 0.0 0.0 0.0 16.28999089631971 0.0 0.0 0.0 34.5300574570662" Properties=species:S:1:pos:R:3:initial_magmoms:R:1 pbc="T T T"
Si      -1.35710361      -1.35775521      -1.35758450       0.00000000
Si       1.35804843       1.35789343      -1.35810245       0.00000000
Si       1.35899325      -1.36080144       1.35737732       0.00000000
Si      -1.35832536       1.35739683       1.36169358       0.00000000
Si      -2.69653257      -0.03608235       2.72383604       0.00000000
Si       2.71450044       2.71396843      -0.00020718       0.00000000
Si       2.71479366      -2.71378368      -0.00176103       0.00000000
Si       0.01319490      -2.71324611       2.71575601       0.00000000
Si      -2.71570590      -2.71363707      -0.00082872       0.00000000
Si       2.70953199       0.00656487       2.72083193       0.00000000
