10
Lattice="16.28999089631971 0.0 0.0 0.0 16.28999089631971 0.0 0.0 0.0 34.5300574570662" Properties=species:S:1:pos:R:3:initial_magmoms:R:1 pbc="T T T"
Si      -2.08197181      -1.05005340       0.17227055       0.00000000
Si       1.89680271      -0.93044733       1.06445868       0.00000000
Si      -0.31844344       2.00119718       1.24156344       0.00000000
Si       0.21933508      -0.00981798      -2.39932238       0.00000000
Si       3.32093967      -1.00544486      -0.78600814       0.00000000
Si       2.54395554       0.41422538      -2.46164917       0.00000000
Si      -3.21899752       0.17452943       1.82173779       0.00000000
Si      -2.64607822       2.35698707       1.07478317       0.00000000
Si       2.69359548       0.73605062       2.58481796       0.00000000
Si      -1.17823519       1.78051655      -3.15580730       0.00000000
