10
Lattice="16.28999089631971 0.0 0.0 0.0 16.28999089631971 0.0 0.0 0.0 34.5300574570662" Properties=species:S:1:pos:R:3:initial_magmoms:R:1 pbc="T T T"
Si       1.80797823      -0.38784861      -1.43002860       0.00000000
Si      -1.44790407      -1.84893129      -0.15158704       0.00000000
Si       0.96267384      -0.26134047       2.16254965       0.00000000
Si      -1.47973473       1.90836928      -0.27555001       0.00000000
Si      -0.56462769       0.57284829      -3.23401793       0.00000000
Si      -2.61599481      -1.55418003       1.89266257       0.00000000
Si       0.95104278      -2.06534394      -2.91040205       0.00000000
Si       3.21126399       0.33356074       1.86690313       0.00000000
Si       2.49815295       1.71466978      -2.26807356       0.00000000
Si       3.73308156      -0.97653663      -0.10255433       0.00000000
