10
Lattice="16.28999089631971 0.0 0.0 0.0 16.28999089631971 0.0 0.0 0.0 34.5300574570662" Properties=species:S:1:pos:R:3:initial_magmoms:R:1 pbc="T T T"
Si       1.44790407       1.84893129       0.15158704       0.00000000
Si      -1.16809074       0.29475126       2.04424960       0.00000000
Si      -1.31378850       0.17014905      -2.04604517       0.00000000
Si       1.12203891      -2.18180115       0.13487448       0.00000000
Si      -2.37965949      -1.90364940      -1.68524040       0.00000000
Si      -2.65789269      -2.41561152       0.59933854       0.00000000
Si       1.62142515      -2.48139054      -2.15008429       0.00000000
Si       2.39894685      -0.21641265      -2.75881501       0.00000000
Si       2.41057791       1.58759082       2.31413668       0.00000000
Si      -3.35510469      -0.34821504       1.65889395       0.00000000
