10
Lattice="16.28999089631971 0.0 0.0 0.0 16.28999089631971 0.0 0.0 0.0 34.5300574570662" Properties=species:S:1:pos:R:3:initial_magmoms:R:1 pbc="T T T"
Si      -0.26487540      -2.27431206      -0.19747751       0.00000000
Si      -1.12296744       1.37490858      -1.58734763       0.00000000
Si       2.28117015       0.46221246      -0.53573414       0.00000000
Si      -0.53610390       0.50135733       2.27301136       0.00000000
Si       1.18903968       2.09109843       2.21821213       0.00000000
Si       2.96367228       0.53817273       1.69169752       0.00000000
Si      -0.53949222      -2.51670726      -2.50736699       0.00000000
Si      -1.00789488       3.46189608      -0.53487089       0.00000000
Si      -2.76061743       1.33336908       2.08344124       0.00000000
Si       1.77868881      -3.29352849       0.45745446       0.00000000
