10
Lattice="16.28999089631971 0.0 0.0 0.0 16.28999089631971 0.0 0.0 0.0 34.5300574570662" Properties=species:S:1:pos:R:3:initial_magmoms:R:1 pbc="T T T"
Si      -1.35527913      -1.35831233       1.37204915       0.00000000
Si       1.36019871       1.35969372       1.37218727       0.00000000
Si      -1.50521229       1.31729085      -1.33603428       0.00000000
Si       1.36340784      -1.30305665      -1.49717579       0.00000000
Si       2.71604799       2.71023246      -0.01567320       0.00000000
Si       2.72627811      -2.71353023      -0.01832511       0.00000000
Si       0.00169416       2.71482624       2.73363913       0.00000000
Si       2.71637379       0.00042354       2.73236152       0.00000000
Si      -2.71572219       0.00265527       2.73408802       0.00000000
Si       0.00086337      -2.71685339       2.73446786       0.00000000
