10
Lattice="16.28999089631971 0.0 0.0 0.0 16.28999089631971 0.0 0.0 0.0 34.5300574570662" Properties=species:S:1:pos:R:3:initial_magmoms:R:1 pbc="T T T"
Si       0.96756736       1.77484437      -1.10206193       0.00000000
Si      -2.32763479       0.35578989      -0.16678027       0.00000000
Si       0.31844344      -2.00119718      -1.24156344       0.00000000
Si       1.05261093      -0.33995601       2.18675523       0.00000000
Si      -2.90055409      -1.82666775       0.58017435       0.00000000
Si       3.01203892      -1.26514656       1.34325452       0.00000000
Si       2.21524615      -2.93164451      -0.17710476       0.00000000
Si      -1.76352838      -3.05125058      -1.06929289       0.00000000
Si       0.00126573       1.71584199      -3.31108906       0.00000000
Si       0.39972565       3.81497139      -0.05887378       0.00000000
