10
Lattice="16.28999089631971 0.0 0.0 0.0 16.28999089631971 0.0 0.0 0.0 34.5300574570662" Properties=species:S:1:pos:R:3:initial_magmoms:R:1 pbc="T T T"
Si       1.35746199       1.35728280       1.35672125       0.00000000
Si      -1.35697329       1.35725022      -1.35775715       0.00000000
Si      -1.35798327      -1.35832699       1.35720467       0.00000000
Si       1.35811359      -1.35688207      -1.35872399       0.00000000
Si      -2.71168227       0.00324171       2.71509994       0.00000000
Si      -2.71443528      -2.71440198      -0.00069060       0.00000000
Si       0.00190593      -2.71395377       2.71503088       0.00000000
Si       2.71484253      -2.71438246      -0.00010359       0.00000000
Si      -2.71510317       2.71524978      -0.00010359       0.00000000
Si      -0.00043983      -2.71613663      -2.71437480       0.00000000
