10
Lattice="16.28999089631971 0.0 0.0 0.0 16.28999089631971 0.0 0.0 0.0 34.5300574570662" Properties=species:S:1:pos:R:3:initial_magmoms:R:1 pbc="T T T"
Si       1.34123715       1.33366230       1.39011183       0.00000000
Si       1.35369900      -1.36156870      -1.35789527       0.00000000
Si      -1.36172997       1.35247725      -1.35969083       0.00000000
Si      -1.37152026      -1.34954505       1.38282598       0.00000000
Si       2.49036633      -0.24676092       2.86219806       0.00000000
Si      -0.16166196       2.52014445       2.85246058       0.00000000
Si       2.71278999       2.71236645       0.00787286       0.00000000
Si       2.71168227      -0.00324171      -2.71509994       0.00000000
Si      -0.00342090       2.71200807      -2.71520353       0.00000000
Si       2.71358820      -2.71719548      -0.00006906       0.00000000
