10
Lattice="16.28999089631971 0.0 0.0 0.0 16.28999089631971 0.0 0.0 0.0 34.5300574570662" Properties=species:S:1:pos:R:3:initial_magmoms:R:1 pbc="T T T"
Si      -1.86784398       0.83125264      -1.18793823       0.00000000
Si      -0.69017472      -2.10251839       0.83804496       0.00000000
Si       0.81410904       1.32301516       1.84615055       0.00000000
Si       1.91511756      -0.53773942      -1.37156918       0.00000000
Si      -3.06278064      -1.14182149      -0.96594437       0.00000000
Si       3.11793858       1.20243658       1.41939334       0.00000000
Si       1.23492861      -2.69120641       2.16551923       0.00000000
Si       2.55495618       1.55009776      -2.29966858       0.00000000
Si      -2.49815295      -1.71466978       2.26807356       0.00000000
Si       3.75434001      -0.67380979       0.16422505       0.00000000
