10
Lattice="16.28999089631971 0.0 0.0 0.0 16.28999089631971 0.0 0.0 0.0 34.5300574570662" Properties=species:S:1:pos:R:3:initial_magmoms:R:1 pbc="T T T"
Si       0.63640143      -1.87624636      -1.25516829       0.00000000
Si      -2.30382954       0.12057858       0.42675722       0.00000000
Si       1.40866146      -0.00685809       1.91852559       0.00000000
Si       0.08343738       1.54833192      -1.81058457       0.00000000
Si      -1.20282102      -1.74017599      -2.79096251       0.00000000
Si      -3.11793858      -1.20243658      -1.41939334       0.00000000
Si       2.93003343      -1.31474961      -1.77940392       0.00000000
Si      -0.56298240       0.34766118      -3.71906192       0.00000000
Si      -2.98077678       2.32627716       0.18062683       0.00000000
Si      -2.69330715      -0.21475107       2.72949898       0.00000000
