10
Lattice="16.28999089631971 0.0 0.0 0.0 16.28999089631971 0.0 0.0 0.0 34.5300574570662" Properties=species:S:1:pos:R:3:initial_magmoms:R:1 pbc="T T T"
Si      -1.61510463      -0.65566761       1.47723121       0.00000000
Si       0.06568128      -1.69468032      -1.55772082       0.00000000
Si      -0.62405361       1.84299358      -1.27971917       0.00000000
Si       2.23521606      -0.11590009       0.75389517       0.00000000
Si      -0.43629507       0.51770434       3.22365891       0.00000000
Si       2.80813536       2.06655754       0.00694055       0.00000000
Si       1.98202059      -1.06752280      -2.77007182       0.00000000
Si       1.45593504       2.58371617      -2.03130083       0.00000000
Si       0.14442714      -3.60683310      -0.19792640       0.00000000
Si      -2.09113101       0.87367342      -2.91817132       0.00000000
