10
Lattice="16.28999089631971 0.0 0.0 0.0 16.28999089631971 0.0 0.0 0.0 34.5300574570662" Properties=species:S:1:pos:R:3:initial_magmoms:R:1 pbc="T T T"
Si      -1.38671883      -1.56141279      -1.07074315       0.00000000
Si       1.43716896      -1.29727044       1.39636177       0.00000000
Si       1.47629754       1.42653159      -1.26179806       0.00000000
Si      -1.47038427       1.40895468       1.29038897       0.00000000
Si      -0.33651882      -0.98396487       2.97179653       0.00000000
Si      -2.58088986      -0.03116277      -2.54448683       0.00000000
Si      -2.14161372      -2.23070373       1.95219242       0.00000000
Si       0.11618028      -2.74789494      -2.53309190       0.00000000
Si       0.10096542       2.70871749      -2.59389937       0.00000000
Si       3.35797173       0.12136050       1.77398269       0.00000000
