10
Lattice="16.28999089631971 0.0 0.0 0.0 16.28999089631971 0.0 0.0 0.0 34.5300574570662" Properties=species:S:1:pos:R:3:initial_magmoms:R:1 pbc="T T T"
Si      -1.03612545      -2.12235894      -0.13777501       0.00000000
Si      -1.50356700       1.46580678       1.17923665       0.00000000
Si       2.24661906      -0.36093753       0.84881835       0.00000000
Si       0.39974031       0.93716370      -2.21738341       0.00000000
Si      -1.78010604       2.14905825      -2.31051103       0.00000000
Si       3.26575404       1.68205653       0.11975031       0.00000000
Si       0.91300563      -3.57785415      -0.13908715       0.00000000
Si      -2.25544824      -1.91987424      -2.23806692       0.00000000
Si       2.26189908       2.34909945      -1.96925028       0.00000000
Si       1.43904231      -0.81454887      -3.43588076       0.00000000
