10
Lattice="16.28999089631971 0.0 0.0 0.0 16.28999089631971 0.0 0.0 0.0 34.5300574570662" Properties=species:S:1:pos:R:3:initial_magmoms:R:1 pbc="T T T"
Si       1.77368778      -0.31330557      -1.57543475       0.00000000
Si      -1.80509490      -1.24673886      -1.01960411       0.00000000
Si       1.21932279      -0.20248470       2.10029192       0.00000000
Si      -1.13386545       2.39291955      -1.68140756       0.00000000
Si       0.33651882       0.98396487      -2.97179653       0.00000000
Si      -3.17293362       0.14014287       0.73328071       0.00000000
Si       2.25544824       1.91987424       2.23806692       0.00000000
Si       2.52203409      -2.85865065       0.19050243       0.00000000
Si       2.65518855       2.85703794       0.02068352       0.00000000
Si      -2.64442086       2.10057921       2.09279889       0.00000000
