10
Lattice="16.28999089631971 0.0 0.0 0.0 16.28999089631971 0.0 0.0 0.0 34.5300574570662" Properties=species:S:1:pos:R:3:initial_magmoms:R:1 pbc="T T T"
Si      -0.97197543       1.99721916      -0.81035184       0.00000000
Si      -0.45269910      -1.25547030      -1.96141195       0.00000000
Si       2.36227806      -0.02818170       0.67799806       0.00000000
Si      -1.57843584      -0.41163201       1.86534928       0.00000000
Si       1.70792505       0.83548152       2.75156370       0.00000000
Si       0.22864644      -0.93981897       3.24827885       0.00000000
Si      -2.79417483      -1.15158897      -1.94072843       0.00000000
Si      -2.17227150      -2.66216067       1.31007111       0.00000000
Si      -3.07703439       1.17374337      -1.65136639       0.00000000
Si       1.30184793      -2.82717837       2.22591234       0.00000000
