10
Lattice="16.28999089631971 0.0 0.0 0.0 16.28999089631971 0.0 0.0 0.0 34.5300574570662" Properties=species:S:1:pos:R:3:initial_magmoms:R:1 pbc="T T T"
Si      -0.22990077       0.13918176       2.29293522       0.00000000
Si      -1.80708228       0.52818696      -1.38292957       0.00000000
Si       1.47927861       1.77530049      -0.49671515       0.00000000
Si       1.07320149      -1.88735940      -1.02236651       0.00000000
Si      -0.22864644       0.93981897      -3.24827885       0.00000000
Si       2.13363162       0.91163727      -2.57028079       0.00000000
Si      -2.40091794      -1.72234170      -1.93820774       0.00000000
Si       1.82583207      -0.86672574       3.10283817       0.00000000
Si       3.15319014      -1.14663681      -1.77394816       0.00000000
Si      -0.78664410       2.48482773       2.76444341       0.00000000
