10
Lattice="16.28999089631971 0.0 0.0 0.0 16.28999089631971 0.0 0.0 0.0 34.5300574570662" Properties=species:S:1:pos:R:3:initial_magmoms:R:1 pbc="T T T"
Si       1.34991972       1.34503272      -1.37253602       0.00000000
Si      -1.36681245      -1.36368477      -1.37301944       0.00000000
Si       1.24830270      -1.44875115       1.42032565       0.00000000
Si      -1.29474549       1.44006858       1.39349578       0.00000000
Si      -2.34649305      -0.37849815       2.48088242       0.00000000
Si      -0.62802837      -2.28486798       2.76844890       0.00000000
Si       2.67905340      -2.72670165      -0.01578025       0.00000000
Si       2.69250894       2.71536381      -0.00265882       0.00000000
Si      -0.00679293       2.70316260      -2.73050035       0.00000000
Si      -2.72569167       2.71171485      -0.00939218       0.00000000
