10
Lattice="16.28999089631971 0.0 0.0 0.0 16.28999089631971 0.0 0.0 0.0 34.5300574570662" Properties=species:S:1:pos:R:3:initial_magmoms:R:1 pbc="T T T"
Si       1.37533212      -1.28218590       1.33210130       0.00000000
Si      -1.32449103      -1.36329381      -1.32964967       0.00000000
Si      -1.36445040       1.29546225       1.36020878       0.00000000
Si       1.38158748       1.35534429      -1.32978779       0.00000000
Si       0.40190688       2.34053091       2.52411408       0.00000000
Si       2.12037156       0.43416108       2.81168056       0.00000000
Si      -0.10096542      -2.70871749       2.59389937       0.00000000
Si      -2.68666083      -0.00592956      -2.68716510       0.00000000
Si      -2.67362883       2.71093293       0.02876355       0.00000000
Si       0.02796993       2.71039536      -2.68875349       0.00000000
