10
Lattice="16.28999089631971 0.0 0.0 0.0 16.28999089631971 0.0 0.0 0.0 34.5300574570662" Properties=species:S:1:pos:R:3:initial_magmoms:R:1 pbc="T T T"
Si       1.35361755      -1.35505107       1.35896570       0.00000000
Si      -1.35580041       1.35298224       1.35913835       0.00000000
Si       1.35783666       1.35641943      -1.35644501       0.00000000
Si      -1.35710361      -1.35853713      -1.35620329       0.00000000
Si      -0.02796993      -2.71039536       2.68875349       0.00000000
Si      -2.70159876       0.00053757       2.71751704       0.00000000
Si       2.71363707       2.71179630       0.00148479       0.00000000
Si       0.00068418       2.71350675      -2.71389138       0.00000000
Si      -2.71433754      -0.00141723      -2.71354608       0.00000000
Si      -2.71479366       2.71378368       0.00176103       0.00000000
