10
Lattice="16.28999089631971 0.0 0.0 0.0 16.28999089631971 0.0 0.0 0.0 34.5300574570662" Properties=species:S:1:pos:R:3:initial_magmoms:R:1 pbc="T T T"
Si       1.35674523       1.35633798       1.35775715       0.00000000
Si      -1.35708895       1.35739683      -1.35751544       0.00000000
Si      -1.35748642      -1.35707103       1.35830963       0.00000000
Si       1.35795069      -1.35777150      -1.35768809       0.00000000
Si      -2.71449134       2.71432125       0.00044889       0.00000000
Si       0.00047241      -2.71554300      -2.71358061       0.00000000
Si      -2.71443574      -2.71492398       0.00120855       0.00000000
Si       2.71534752       2.71446786       0.00024171       0.00000000
Si      -2.71432844      -0.00039096      -2.71575601       0.00000000
Si       2.71554300      -2.71508688       0.00048342       0.00000000
