10
Lattice="16.28999089631971 0.0 0.0 0.0 16.28999089631971 0.0 0.0 0.0 34.5300574570662" Properties=species:S:1:pos:R:3:initial_magmoms:R:1 pbc="T T T"
Si      -1.66545702       0.02150280       1.66352098       0.00000000
Si       0.16491996      -1.54979802      -1.79093696       0.00000000
Si      -0.32125509       2.20494924      -0.86856955       0.00000000
Si       1.81105704      -0.59360760       1.50537323       0.00000000
Si      -0.55648269       1.41727887       3.31471472       0.00000000
Si      -2.14140195      -2.28261996       2.06503671       0.00000000
Si       1.13689539      -3.54701718      -0.98058512       0.00000000
Si       1.77564258       3.03401250      -1.57906041       0.00000000
Si       1.33183782      -0.53677179      -3.61488468       0.00000000
Si       3.61714563       0.82269387       1.17574911       0.00000000
