10
Lattice="16.28999089631971 0.0 0.0 0.0 16.28999089631971 0.0 0.0 0.0 34.5300574570662" Properties=species:S:1:pos:R:3:initial_magmoms:R:1 pbc="T T T"
Si       0.54485163      -1.92526623       1.32405579       0.00000000
Si       1.21902957       1.92774231       0.78928849       0.00000000
Si      -2.26229004       0.89428842      -0.13912168       0.00000000
Si       0.67629564      -0.86317452      -2.20854371       0.00000000
Si      -0.61468686      -0.26619489       2.77192474       0.00000000
Si      -1.51127217       3.00591225      -0.98120666       0.00000000
Si      -2.36594331       1.48432851       2.34908112       0.00000000
Si      -0.25531317      -3.66777495      -0.18221522       0.00000000
Si       1.50405570      -2.98768374      -1.69749857       0.00000000
Si      -1.31426091      -1.56470337      -3.32662759       0.00000000
