10
Lattice="16.28999089631971 0.0 0.0 0.0 16.28999089631971 0.0 0.0 0.0 34.5300574570662" Properties=species:S:1:pos:R:3:initial_magmoms:R:1 pbc="T T T"
Si      -1.35656604      -1.35643572       1.35613423       0.00000000
Si       1.35855342       1.35925456       1.35565081       0.00000000
Si      -1.35614250       1.35854106      -1.36241871       0.00000000
Si       1.35949824      -1.35707103      -1.36314384       0.00000000
Si       0.00058644      -2.71352304       2.71358061       0.00000000
Si      -2.71399545       0.00173464       2.71368420       0.00000000
Si       2.71528236       0.00175417       2.71427121       0.00000000
Si       2.71599912      -2.71435383       0.00079419       0.00000000
Si       0.00043983       2.71613663       2.71437480       0.00000000
Si      -2.71588509      -2.71529865      -0.00231352       0.00000000
