10
Lattice="16.28999089631971 0.0 0.0 0.0 16.28999089631971 0.0 0.0 0.0 34.5300574570662" Properties=species:S:1:pos:R:3:initial_magmoms:R:1 pbc="T T T"
Si      -1.34150745      -1.35891180       1.35420055       0.00000000
Si      -1.35463719       1.35832536      -1.36114110       0.00000000
Si       1.35924327      -1.35677781      -1.36041596       0.00000000
Si       1.35772667       1.36120869       1.39097508       0.00000000
Si      -2.64765594       0.01637145       2.74362178       0.00000000
Si       2.71285267      -2.71248048      -0.00037983       0.00000000
Si      -2.71307658      -2.71355562       0.00207180       0.00000000
Si      -2.71198515       2.71534752      -0.00797645       0.00000000
Si      -2.71252272       0.00037467      -2.71779328       0.00000000
Si       2.71275493       2.71806795      -0.00124308       0.00000000
