10
Lattice="16.28999089631971 0.0 0.0 0.0 16.28999089631971 0.0 0.0 0.0 34.5300574570662" Properties=species:S:1:pos:R:3:initial_magmoms:R:1 pbc="T T T"
Si      -0.06568128       1.69468032       1.55772082       0.00000000
Si      -1.86833268       0.19955920      -1.37436611       0.00000000
Si       0.07874586      -1.91215278       1.35979442       0.00000000
Si       1.91633931       0.62715753      -1.21235099       0.00000000
Si       3.30656049       0.35419740       0.66214875       0.00000000
Si       0.05729193      -3.38643036      -0.56677668       0.00000000
Si       2.16953478       1.57878023       2.31161599       0.00000000
Si      -1.72872738      -1.37101527       2.78191563       0.00000000
Si      -0.68973489       3.53767391       0.27800165       0.00000000
Si      -2.15681229       2.56835375      -1.36045049       0.00000000
