10
Lattice="16.28999089631971 0.0 0.0 0.0 16.28999089631971 0.0 0.0 0.0 34.5300574570662" Properties=species:S:1:pos:R:3:initial_magmoms:R:1 pbc="T T T"
Si      -1.36340784       1.30305665       1.49717579       0.00000000
Si       1.36287027      -1.41047358       1.47885067       0.00000000
Si       1.44726876       1.29728999      -1.62453449       0.00000000
Si      -1.70605170      -1.45525479      -1.32926780       0.00000000
Si       2.75613768       2.72631395      -0.05383239       0.00000000
Si      -2.86862013       2.62034750       0.16114151       0.00000000
Si      -0.00320913       2.66275037       2.86936305       0.00000000
Si       2.81694825      -2.75395875       0.03093550       0.00000000
Si       2.71002069      -0.05439557       2.86736031       0.00000000
Si      -2.71868697      -0.05525568       2.86922493       0.00000000
