10
Lattice="16.28999089631971 0.0 0.0 0.0 16.28999089631971 0.0 0.0 0.0 34.5300574570662" Properties=species:S:1:pos:R:3:initial_magmoms:R:1 pbc="T T T"
Si       1.13702571      -1.22458283      -1.64946724       0.00000000
Si      -2.23521606       0.11590009      -0.75389517       0.00000000
Si       0.57291930       2.18245764      -0.74695462       0.00000000
Si       0.78089373      -0.87028022       2.15350277       0.00000000
Si       2.90055409       1.82666775      -0.58017435       0.00000000
Si      -2.16953478      -1.57878023      -2.31161599       0.00000000
Si      -0.25319547      -0.95162270      -3.52396698       0.00000000
Si      -2.67151113       0.63360444       2.46976374       0.00000000
Si       3.21899752      -0.17452943      -1.82173779       0.00000000
Si      -0.11552868       3.64065699       0.95061301       0.00000000
