10
Lattice="16.28999089631971 0.0 0.0 0.0 16.28999089631971 0.0 0.0 0.0 34.5300574570662" Properties=species:S:1:pos:R:3:initial_magmoms:R:1 pbc="T T T"
Si       1.32669507       1.20920670      -1.61258911       0.00000000
Si       0.93969354      -2.05328934       1.08469330       0.00000000
Si      -1.41764333      -1.38706092      -1.58769293       0.00000000
Si      -1.11486317       2.05255629       1.41179672       0.00000000
Si      -1.08673033      -3.36392247       0.73870193       0.00000000
Si       2.36238069       1.93442121       1.99949862       0.00000000
Si       2.48616840       2.77470828      -0.29630259       0.00000000
Si      -2.87098448       2.64859110      -0.18711849       0.00000000
Si       0.52931586       1.89258849       3.50936076       0.00000000
Si      -0.06773871       2.59625133      -3.07196828       0.00000000
