10
Lattice="16.28999089631971 0.0 0.0 0.0 16.28999089631971 0.0 0.0 0.0 34.5300574570662" Properties=species:S:1:pos:R:3:initial_magmoms:R:1 pbc="T T T"
Si      -1.35584928      -1.35053874       1.38786047       0.00000000
Si       1.35552348       1.36295172       1.38571960       0.00000000
Si      -1.44598185       1.38813606      -1.36535722       0.00000000
Si       1.40349753      -1.28697516      -1.53533497       0.00000000
Si       2.71117728      -2.70238068      -0.01068361       0.00000000
Si      -2.71604799      -2.71023246       0.01567320       0.00000000
Si      -2.71270854       2.72960127       0.05342839       0.00000000
Si       2.72385840       2.72026710       0.00531418       0.00000000
Si       0.00032580      -2.70980892       2.74803472       0.00000000
Si       2.71570590       0.00434943       2.74772395       0.00000000
