10
Lattice="16.28999089631971 0.0 0.0 0.0 16.28999089631971 0.0 0.0 0.0 34.5300574570662" Properties=species:S:1:pos:R:3:initial_magmoms:R:1 pbc="T T T"
Si       0.49337523      -2.09676735       0.94888651       0.00000000
Si      -1.84428864      -0.11587077      -1.50968949       0.00000000
Si      -0.58531599       1.11446406       2.06296491       0.00000000
Si       1.79681958       0.77895522      -1.44408234       0.00000000
Si       2.20043691       2.97268065      -0.57889674       0.00000000
Si      -1.49773518      -2.75789700       2.08986384       0.00000000
Si       1.18182321      -3.55496670      -0.74868112       0.00000000
Si      -1.41307605       3.23897328       1.55191977       0.00000000
Si      -1.18993563      -0.97953399      -3.58325512       0.00000000
Si      -2.87805204       2.00205729      -1.77529484       0.00000000
