10
Lattice="16.28999089631971 0.0 0.0 0.0 16.28999089631971 0.0 0.0 0.0 34.5300574570662" Properties=species:S:1:pos:R:3:initial_magmoms:R:1 pbc="T T T"
Si       1.34082990       1.36997271       1.38710771       0.00000000
Si      -1.36769211      -1.35029439       1.38804003       0.00000000
Si      -1.48781457       1.28552535      -1.36442836       0.00000000
Si       1.50820965      -1.32730920      -1.53851865       0.00000000
Si       0.08026083       2.52504774      -2.61693542       0.00000000
Si      -0.14625162      -2.52604143      -2.82153686       0.00000000
Si       2.69374698       2.71221984       0.01798326       0.00000000
Si       2.71019109      -2.70585045       0.00297304       0.00000000
Si      -2.72637585      -2.69651628       0.05108725       0.00000000
Si       2.70188180       0.01044189       2.74662590       0.00000000
