10
Lattice="16.28999089631971 0.0 0.0 0.0 16.28999089631971 0.0 0.0 0.0 34.5300574570662" Properties=species:S:1:pos:R:3:initial_magmoms:R:1 pbc="T T T"
Si       1.35660092       1.35558864       1.35748091       0.00000000
Si      -1.35687555      -1.35628911       1.35713561       0.00000000
Si       1.35740239      -1.35692442      -1.35796433       0.00000000
Si      -1.35812988       1.35780408      -1.35803339       0.00000000
Si      -2.71422351       0.00073305       2.71030025       0.00000000
Si       2.71051658       0.00345348       2.71703362       0.00000000
Si       2.71449134      -2.71432125      -0.00044889       0.00000000
Si      -2.71476108      -2.71423980       0.00048342       0.00000000
Si       2.71480085       2.71562445       0.00024171       0.00000000
Si      -2.71503801       2.71546155      -0.00013812       0.00000000
