10
Lattice="16.28999089631971 0.0 0.0 0.0 16.28999089631971 0.0 0.0 0.0 34.5300574570662" Properties=species:S:1:pos:R:3:initial_magmoms:R:1 pbc="T T T"
Si       2.10347883       0.70335333      -0.65437948       0.00000000
Si      -0.88036047      -0.88062111      -1.98962302       0.00000000
Si       0.14980284      -1.99775673       1.27754378       0.00000000
Si      -0.85942782       1.83168018       1.27471231       0.00000000
Si      -2.32044534      -1.90788480       1.31998124       0.00000000
Si      -3.00876300      -1.40854743      -1.01708341       0.00000000
Si       0.81855621       1.87597269       2.96243887       0.00000000
Si       1.93495878       1.50219864      -2.78674984       0.00000000
Si       0.19091880      -3.04911333      -2.17321944       0.00000000
Si       0.37962216       0.10661805      -3.85269331       0.00000000
