10
Lattice="16.28999089631971 0.0 0.0 0.0 16.28999089631971 0.0 0.0 0.0 34.5300574570662" Properties=species:S:1:pos:R:3:initial_magmoms:R:1 pbc="T T T"
Si      -0.68012379       1.73367207       1.38268786       0.00000000
Si      -0.27450279      -1.79841600       1.44460029       0.00000000
Si      -1.67798403      -0.04429251      -1.68772656       0.00000000
Si       2.37244858       0.38408562      -0.25890652       0.00000000
Si       2.25077303       0.72614304      -2.59086072       0.00000000
Si       0.86201793      -0.88971093       3.30521895       0.00000000
Si      -0.81855621      -1.87597269      -2.96243887       0.00000000
Si       0.71009739       1.46071194       3.25718761       0.00000000
Si      -1.42356681       2.01337299      -2.75007890       0.00000000
Si       0.50940459      -3.75971571       0.40224086       0.00000000
