10
Lattice="16.28999089631971 0.0 0.0 0.0 16.28999089631971 0.0 0.0 0.0 34.5300574570662" Properties=species:S:1:pos:R:3:initial_magmoms:R:1 pbc="T T T"
Si       0.02678076      -0.95811264      -2.10633468       0.00000000
Si      -2.32589760       0.09656712       0.29968654       0.00000000
Si       0.71938269       2.19748842      -0.56974627       0.00000000
Si       1.02061737      -1.14758163       1.82781508       0.00000000
Si      -1.36533006       3.20186466      -0.09951568       0.00000000
Si       2.65655691       2.54552427       0.76801797       0.00000000
Si       2.23941888      -1.40050017      -2.73195061       0.00000000
Si      -3.29219923       0.03756474      -1.90934059       0.00000000
Si      -1.49894064       0.23164380      -3.51122538       0.00000000
Si      -2.89373931       2.13669414       1.34287468       0.00000000
