10
Lattice="16.28999089631971 0.0 0.0 0.0 16.28999089631971 0.0 0.0 0.0 34.5300574570662" Properties=species:S:1:pos:R:3:initial_magmoms:R:1 pbc="T T T"
Si       1.35062019      -1.35692442      -1.35872399       0.00000000
Si       1.35519768       1.35606105       1.35810245       0.00000000
Si      -1.35953245      -1.35874890       1.35720467       0.00000000
Si      -1.35984196       1.35371529      -1.36193529       0.00000000
Si       2.71194291       2.71093293       0.00041436       0.00000000
Si       2.71290402      -0.00167787       2.71496181       0.00000000
Si      -0.00213399       2.71379997       2.71541071       0.00000000
Si      -0.00244350      -2.71614573       2.71472010       0.00000000
Si      -2.71693484      -0.00182448       2.71516900       0.00000000
Si       2.71365336      -2.71855665      -0.00062154       0.00000000
