10
Lattice="16.28999089631971 0.0 0.0 0.0 16.28999089631971 0.0 0.0 0.0 34.5300574570662" Properties=species:S:1:pos:R:3:initial_magmoms:R:1 pbc="T T T"
Si       1.35360941      -1.35570267       1.36003613       0.00000000
Si      -1.35694931      -1.35785295      -1.35710108       0.00000000
Si       1.35748642       1.35707103      -1.35830963       0.00000000
Si      -1.35924327       1.35677781       1.36041596       0.00000000
Si      -2.70075072      -0.00213399       2.71461651       0.00000000
Si       2.71423165       2.71340901      -0.00055248       0.00000000
Si      -2.71388046       2.71510317      -0.00072513       0.00000000
Si       0.00039748       2.71446786      -2.71582507       0.00000000
Si       2.71556743      -2.71495167       0.00075966       0.00000000
Si      -2.71492302      -0.00087966      -2.71599772       0.00000000
