10
Lattice="16.28999089631971 0.0 0.0 0.0 16.28999089631971 0.0 0.0 0.0 34.5300574570662" Properties=species:S:1:pos:R:3:initial_magmoms:R:1 pbc="T T T"
Si      -1.35628911       1.35571896       1.36003613       0.00000000
Si      -1.35081567      -1.34552142      -1.37740476       0.00000000
Si       1.35837423      -1.36262592       1.36058861       0.00000000
Si       1.37044512       1.33103961      -1.39903785       0.00000000
Si       0.19078848      -2.61257391      -2.66887107       0.00000000
Si      -0.11886813       2.61983925      -2.76258915       0.00000000
Si      -2.71048821       2.71147050       0.00065607       0.00000000
Si      -2.71328032      -0.00185706       2.71806952       0.00000000
Si       0.00040725       2.71329498       2.71834576       0.00000000
Si      -2.71341064      -2.71984356      -0.00176103       0.00000000
