10
Lattice="16.28999089631971 0.0 0.0 0.0 16.28999089631971 0.0 0.0 0.0 34.5300574570662" Properties=species:S:1:pos:R:3:initial_magmoms:R:1 pbc="T T T"
Si      -1.75829373      -0.89049285      -1.27960595       0.00000000
Si      -1.23196383       1.44301707       1.40527744       0.00000000
Si       1.48931325      -1.28879964       1.36355129       0.00000000
Si       0.68986521       1.86514214      -1.36784480       0.00000000
Si      -2.54721517       2.74227067      -0.08532382       0.00000000
Si      -3.33288024       0.85818978      -1.48075816       0.00000000
Si      -2.65081794      -2.66538609      -0.05492699       0.00000000
Si      -2.59162008       0.09163125       2.76324522       0.00000000
Si      -0.02226843       1.07126298      -3.63691974       0.00000000
Si       2.65507452       2.71491813      -0.09155650       0.00000000
