10
Lattice="16.28999089631971 0.0 0.0 0.0 16.28999089631971 0.0 0.0 0.0 34.5300574570662" Properties=species:S:1:pos:R:3:initial_magmoms:R:1 pbc="T T T"
Si      -1.39965309       1.29828042       1.32678367       0.00000000
Si      -1.37381715      -1.32367653      -1.36994627       0.00000000
Si       1.33820721       1.39347918      -1.36214247       0.00000000
Si       1.43376435      -1.38308616       1.48755571       0.00000000
Si      -0.00990432       2.56193874       2.73675029       0.00000000
Si      -2.70961996      -2.67050115       0.01225818       0.00000000
Si       2.70972747      -2.67716376      -0.00808004       0.00000000
Si      -0.01917333      -2.67755472      -2.72466477       0.00000000
Si       2.69653257       0.03608235      -2.72383604       0.00000000
Si       2.68581375       2.76207443       0.01667803       0.00000000
