10
Lattice="16.28999089631971 0.0 0.0 0.0 16.28999089631971 0.0 0.0 0.0 34.5300574570662" Properties=species:S:1:pos:R:3:initial_magmoms:R:1 pbc="T T T"
Si       1.35464382      -1.35387819      -1.35471850       0.00000000
Si      -1.33580281      -1.34682462       1.38220444       0.00000000
Si       1.37381715       1.32367653       1.36994627       0.00000000
Si      -1.35841984       1.35992178      -1.35454585       0.00000000
Si      -0.02583594       2.62195695       2.69672993       0.00000000
Si       2.70979263      -2.71023246       0.00348754       0.00000000
Si      -0.00206883      -2.71230129      -2.71164693       0.00000000
Si       2.71324611       0.00200367      -2.71147428       0.00000000
Si      -2.71664734       0.00236205      -2.71219941       0.00000000
Si       2.71202436       2.71715571       0.00780380       0.00000000
