10
Lattice="16.28999089631971 0.0 0.0 0.0 16.28999089631971 0.0 0.0 0.0 34.5300574570662" Properties=species:S:1:pos:R:3:initial_magmoms:R:1 pbc="T T T"
Si      -1.88025533      -0.17578539      -1.35931100       0.00000000
Si      -0.27823320      -0.51196212       2.28457894       0.00000000
Si       1.06587099       2.07379845      -0.36080477       0.00000000
Si       1.75909194      -1.06852626      -1.18320761       0.00000000
Si       2.37965949       1.90364940       1.68524040       0.00000000
Si      -0.76655853       0.18189414      -3.41184782       0.00000000
Si       1.58623875       0.23441310      -3.17759578       0.00000000
Si      -2.14567482      -2.57004072      -1.31563045       0.00000000
Si       1.79504397      -1.69321518       2.80947063       0.00000000
Si      -0.97544520       1.55543436       3.34413434       0.00000000
