10
Lattice="16.28999089631971 0.0 0.0 0.0 16.28999089631971 0.0 0.0 0.0 34.5300574570662" Properties=species:S:1:pos:R:3:initial_magmoms:R:1 pbc="T T T"
Si       2.00232510       0.06152733      -1.23199861       0.00000000
Si       0.12167555      -0.34205742       2.33195420       0.00000000
Si      -0.96585041      -1.89876240      -1.02595764       0.00000000
Si      -1.38070784       1.84872671      -0.68345381       0.00000000
Si      -2.25077303      -0.72614304       2.59086072       0.00000000
Si      -1.13437046      -1.09991709      -3.15832800       0.00000000
Si      -1.63229060       1.19438184      -3.01043568       0.00000000
Si       0.76063125       1.77480432       3.27645539       0.00000000
Si       1.25248825      -1.07833284      -3.44306301       0.00000000
Si       3.60146553      -1.43241228      -0.25300187       0.00000000
