10
Lattice="16.28999089631971 0.0 0.0 0.0 16.28999089631971 0.0 0.0 0.0 34.51530692428229" Properties=species:S:1:pos:R:3:initial_magmoms:R:1 pbc="T T T"
Si      -1.32362155       1.38038039       1.38505517       0.00000000
Si       1.40651118      -1.33088553       1.35708050       0.00000000
Si      -0.84910159      -1.82577573      -1.34294789       0.00000000
Si       0.67093623       1.94489405      -1.49574724       0.00000000
Si      -0.82359959       0.06115429      -2.76056137       0.00000000
Si       2.60123607       2.68424828      -0.07141221       0.00000000
Si      -2.59502048       2.73671837      -0.02696337       0.00000000
Si      -2.65184000      -2.74730103      -0.14587212       0.00000000
Si       0.03579565      -2.66951628       2.74029945       0.00000000
Si      -2.67906059       0.04324343       2.74606351       0.00000000
