10
Lattice="16.28999089631971 0.0 0.0 0.0 16.28999089631971 0.0 0.0 0.0 34.51530692428229" Properties=species:S:1:pos:R:3:initial_magmoms:R:1 pbc="T T T"
Si       1.83264129       0.85244104      -1.29894085       0.00000000
Si      -1.22197806       1.46958769       1.45958757       0.00000000
Si       1.48584348      -1.26758289       1.45669863       0.00000000
Si      -1.90737981      -1.02158337      -1.28030258       0.00000000
Si      -2.56585419       0.10938898       2.84211967       0.00000000
Si       2.79150327       2.66353066       0.08577404       0.00000000
Si       0.14612130      -2.60184436       2.84798727       0.00000000
Si      -2.71863810       2.75266954       0.03120185       0.00000000
Si       3.67981326      -0.65129212      -1.04192002       0.00000000
Si      -2.61433323      -2.88017530      -0.09503105       0.00000000
