10
Lattice="16.28999089631971 0.0 0.0 0.0 16.28999089631971 0.0 0.0 0.0 34.51530692428229" Properties=species:S:1:pos:R:3:initial_magmoms:R:1 pbc="T T T"
Si      -1.73071476      -0.82433916      -1.43870234       0.00000000
Si       1.90676079      -1.62183240      -0.07762497       0.00000000
Si       1.02035673       1.91715381      -1.29988170       0.00000000
Si      -0.88246188      -1.15215912       2.32426207       0.00000000
Si       1.42104186      -1.92687079       2.28236046       0.00000000
Si      -0.23310990      -2.08087808      -2.77931213       0.00000000
Si       2.47933800       0.66156948      -2.78045113       0.00000000
Si       1.05340914       1.28401038       3.42461067       0.00000000
Si      -3.26780658      -1.99120978       0.05805478       0.00000000
Si       1.10851821      -3.52954520      -1.22046193       0.00000000
