10
Lattice="16.28999089631971 0.0 0.0 0.0 16.28999089631971 0.0 0.0 0.0 34.51530692428229" Properties=species:S:1:pos:R:3:initial_magmoms:R:1 pbc="T T T"
Si      -1.28080125      -1.03511547      -1.62791536       0.00000000
Si      -0.48970998       2.27831940      -0.03099476       0.00000000
Si      -0.65493945      -1.05065613       1.99609035       0.00000000
Si       2.26230633      -0.05561406      -0.65589474       0.00000000
Si      -0.46025766      -3.21810416      -1.06341720       0.00000000
Si       0.00653229      -3.16900610       1.29139093       0.00000000
Si       0.19955250       2.73844674       2.23348676       0.00000000
Si       2.20921722       1.59407424      -2.31418359       0.00000000
Si       3.29535297       0.74927484       1.33550152       0.00000000
Si       1.72362861       1.07553096       3.11770039       0.00000000
