10
Lattice="16.28999089631971 0.0 0.0 0.0 16.28999089631971 0.0 0.0 0.0 34.51530692428229" Properties=species:S:1:pos:R:3:initial_magmoms:R:1 pbc="T T T"
Si       1.57944582      -0.61734213      -1.58660052       0.00000000
Si       1.62412929       0.76243716       1.49482426       0.00000000
Si      -1.47595545       1.62311931      -0.83875694       0.00000000
Si      -1.19606067      -1.97161128       0.52473650       0.00000000
Si       0.06791301      -0.70889193      -3.38091426       0.00000000
Si      -2.06312850       0.31817628      -2.76913011       0.00000000
Si       2.68988625      -1.21303485       2.04758721       0.00000000
Si       2.97896859      -2.02561263      -0.16660548       0.00000000
Si       2.44648107       1.41729516      -2.25930422       0.00000000
Si      -2.79270873       2.12781609       1.06089758       0.00000000
