10
Lattice="16.28999089631971 0.0 0.0 0.0 16.28999089631971 0.0 0.0 0.0 34.51530692428229" Properties=species:S:1:pos:R:3:initial_magmoms:R:1 pbc="T T T"
Si      -2.29006449       0.48229803      -0.27591552       0.00000000
Si       0.48570264      -0.43109041       2.27221296       0.00000000
Si       1.19606067       1.97161128      -0.52473650       0.00000000
Si       0.78060051      -1.96148609      -1.06887062       0.00000000
Si       3.03609762      -2.10794948      -0.40445059       0.00000000
Si       2.77550649       1.35426915      -2.11133702       0.00000000
Si      -2.74175361       2.19994821       1.31203110       0.00000000
Si      -2.57484627       0.74815083      -2.64987965       0.00000000
Si      -0.46543788      -3.76755839      -0.18044613       0.00000000
Si      -3.55241569      -1.34046826       0.40531348       0.00000000
