10
Lattice="16.28999089631971 0.0 0.0 0.0 16.28999089631971 0.0 0.0 0.0 34.51530692428229" Properties=species:S:1:pos:R:3:initial_magmoms:R:1 pbc="T T T"
Si      -0.70695342      -1.85859193       1.18527153       0.00000000
Si       1.90737981       1.02158337       1.28030258       0.00000000
Si      -0.89738352      -0.37919929      -2.36695753       0.00000000
Si      -2.00598318      -0.24088090       2.73999714       0.00000000
Si       0.83856033       2.97832351      -2.05821793       0.00000000
Si       0.53639712       1.07331389      -3.56481192       0.00000000
Si       0.68540175       2.49117106       2.73989014       0.00000000
Si      -3.41249436       1.09000462       1.38291664       0.00000000
Si      -1.45746630      -3.67098475      -0.29217224       0.00000000
Si      -0.81125829       3.77425291       1.31150443       0.00000000
