10
Lattice="16.28999089631971 0.0 0.0 0.0 16.28999089631971 0.0 0.0 0.0 34.51530692428229" Properties=species:S:1:pos:R:3:initial_magmoms:R:1 pbc="T T T"
Si      -0.87128924       2.14770471      -0.09074079       0.00000000
Si      -1.60712483      -1.21591054       1.19212485       0.00000000
Si      -0.17945716      -0.35685739      -2.37348092       0.00000000
Si       2.12334123       0.71863351       0.91883250       0.00000000
Si       0.86319570       3.17343714      -1.36905041       0.00000000
Si      -0.60682109      -3.31460011       1.17559201       0.00000000
Si       1.19367093       1.53832188      -3.10085691       0.00000000
Si      -2.79994379       1.96463769      -1.44619217       0.00000000
Si      -2.50445948       0.11451886      -2.85448651       0.00000000
Si       3.74779632      -0.63658927      -0.16229106       0.00000000
