10
Lattice="16.28999089631971 0.0 0.0 0.0 16.28999089631971 0.0 0.0 0.0 34.51530692428229" Properties=species:S:1:pos:R:3:initial_magmoms:R:1 pbc="T T T"
Si      -0.48485556       2.26263213       0.34767288       0.00000000
Si      -1.65814281      -1.53455058      -0.72116323       0.00000000
Si       1.00533735      -0.41777334       2.15265187       0.00000000
Si       1.91961360       0.28000881      -2.05203969       0.00000000
Si       1.66539186      -3.05391888      -0.30970602       0.00000000
Si      -3.25917288      -1.03433355       1.16220006       0.00000000
Si       1.60474419       3.04012125       1.13341428       0.00000000
Si       2.50743825      -2.11416507       1.65407798       0.00000000
Si      -0.55991988      -3.71705220       0.19187070       0.00000000
Si      -0.24894378       3.27269358      -1.85116049       0.00000000
