10
Lattice="16.28999089631971 0.0 0.0 0.0 16.28999089631971 0.0 0.0 0.0 34.51530692428229" Properties=species:S:1:pos:R:3:initial_magmoms:R:1 pbc="T T T"
Si       1.84974579       1.39883859      -0.15459415       0.00000000
Si      -1.53515331       0.63749286       1.71851809       0.00000000
Si      -0.68926248      -0.46012734      -2.26448152       0.00000000
Si       1.52407611      -1.66291578       0.88421363       0.00000000
Si      -0.19955250      -2.73844674      -2.23348676       0.00000000
Si      -2.39836041      -1.45709163       2.30476091       0.00000000
Si       1.29468033       3.24412092      -1.41181490       0.00000000
Si       3.09580047      -1.98917190      -0.89798524       0.00000000
Si       2.43475227       2.22433434       1.91691219       0.00000000
Si       3.68157258       0.31947948      -1.19795794       0.00000000
