10
Lattice="16.28999089631971 0.0 0.0 0.0 16.28999089631971 0.0 0.0 0.0 34.51530692428229" Properties=species:S:1:pos:R:3:initial_magmoms:R:1 pbc="T T T"
Si      -1.22844519      -1.39675347       1.45357845       0.00000000
Si       1.96758765       0.82818360       1.10604363       0.00000000
Si       1.32880788      -1.35817875      -1.48267487       0.00000000
Si      -1.37761272       1.35894438      -1.47960300       0.00000000
Si      -2.00857329       0.16773813       3.17444358       0.00000000
Si       2.72562651       2.67724521      -0.15321353       0.00000000
Si       2.65709448      -2.77500150      -0.00790401       0.00000000
Si      -2.78798463      -2.67897195       0.14582725       0.00000000
Si      -2.81971755       2.68320735      -0.06112664       0.00000000
Si       2.69669547       0.00597843      -2.86729169       0.00000000
