10
Lattice="16.28999089631971 0.0 0.0 0.0 16.28999089631971 0.0 0.0 0.0 34.51530692428229" Properties=species:S:1:pos:R:3:initial_magmoms:R:1 pbc="T T T"
Si      -1.64483388       0.37005993       1.53817551       0.00000000
Si       1.54232091       1.38419388       1.11460343       0.00000000
Si      -0.40167882       1.12526433      -2.04420471       0.00000000
Si      -0.40777128      -2.38728321      -0.33293484       0.00000000
Si       1.83076794      -2.82190041       0.15749343       0.00000000
Si      -3.56156904      -0.39029211       0.45919190       0.00000000
Si      -2.05307757      -0.23819238      -2.98619699       0.00000000
Si      -1.23691599      -2.42631405      -2.61757331       0.00000000
Si       1.47554820       3.50337627      -0.01321937       0.00000000
Si      -1.00242144      -0.46850040       3.66846145       0.00000000
