10
Lattice="16.28999089631971 0.0 0.0 0.0 16.28999089631971 0.0 0.0 0.0 34.51530692428229" Properties=species:S:1:pos:R:3:initial_magmoms:R:1 pbc="T T T"
Si       2.23935372      -0.68983263       0.10641075       0.00000000
Si      -1.07823510       0.10810044       2.09918762       0.00000000
Si       0.37887282       2.34644418      -0.03917490       0.00000000
Si      -1.02771981      -1.05394671      -1.94555991       0.00000000
Si       2.94218577       0.53289477      -1.74716581       0.00000000
Si      -1.79577702      -2.05001505       2.37641473       0.00000000
Si      -2.90776500       1.47387033       1.60613619       0.00000000
Si      -3.08620566       1.86944040      -0.69917696       0.00000000
Si       1.19723355       2.88078876       2.12621313       0.00000000
Si       2.17334664       2.74351293      -1.44008296       0.00000000
