10
Lattice="16.28999089631971 0.0 0.0 0.0 16.28999089631971 0.0 0.0 0.0 34.51530692428229" Properties=species:S:1:pos:R:3:initial_magmoms:R:1 pbc="T T T"
Si       1.35397593       1.32900077       1.38119981       0.00000000
Si      -1.35627282       1.35484649      -1.35804003       0.00000000
Si       1.35436689      -1.36137159      -1.35634877       0.00000000
Si      -1.36733373      -1.36197432       1.37778279       0.00000000
Si      -0.14362893       2.58553970       2.72180959       0.00000000
Si      -2.71601541       2.70996272       0.00013806       0.00000000
Si       0.00026064       2.71139624      -2.71469944       0.00000000
Si       2.71464705      -0.00301021      -2.71407816       0.00000000
Si      -2.71536381      -0.00266561      -2.71428525       0.00000000
Si       2.71849149       2.71146140       0.00452151       0.00000000
