10
Lattice="16.28999089631971 0.0 0.0 0.0 16.28999089631971 0.0 0.0 0.0 34.51530692428229" Properties=species:S:1:pos:R:3:initial_magmoms:R:1 pbc="T T T"
Si       1.18428300       1.49639940      -1.38854264       0.00000000
Si      -1.19749419       1.43296614       1.44918465       0.00000000
Si       1.49666004      -1.28308185       1.42838571       0.00000000
Si      -1.93029984      -0.73935423      -1.42433503       0.00000000
Si      -0.62296218       1.95574482      -2.97790438       0.00000000
Si      -0.75328218      -0.33658398      -3.52742289       0.00000000
Si      -2.60123607      -2.68424828       0.07141221       0.00000000
Si      -2.57932439       2.78438454       0.08759299       0.00000000
Si      -2.56392220       0.07623720       2.81285067       0.00000000
Si       1.64981862      -0.79592940      -3.36972236       0.00000000
