10
Lattice="16.28999089631971 0.0 0.0 0.0 16.28999089631971 0.0 0.0 0.0 34.51530692428229" Properties=species:S:1:pos:R:3:initial_magmoms:R:1 pbc="T T T"
Si       1.32727662       1.39207824      -1.37905986       0.00000000
Si       0.57853935      -1.54715904       1.73080555       0.00000000
Si      -1.45331235      -1.24227540      -1.51101195       0.00000000
Si      -0.04113225      -0.51727266       3.74277294       0.00000000
Si      -0.01120752      -2.56653837      -2.92948831       0.00000000
Si       2.12551920       3.29979104      -0.23622289       0.00000000
Si       3.00332214      -1.94628033       1.73201358       0.00000000
Si       2.69855253       0.15954426      -2.93991194       0.00000000
Si      -3.27880233      -2.28253851      -0.41801512       0.00000000
Si      -2.73566115       0.14977026      -2.94132707       0.00000000
