10
Lattice="16.28999089631971 0.0 0.0 0.0 16.28999089631971 0.0 0.0 0.0 34.51530692428229" Properties=species:S:1:pos:R:3:initial_magmoms:R:1 pbc="T T T"
Si      -0.95410530       0.84170430      -1.99740193       0.00000000
Si      -1.70777844      -1.54163673       0.64398696       0.00000000
Si       0.58717305       1.30494303       1.93037316       0.00000000
Si       2.13104151      -1.02706821      -0.61178416       0.00000000
Si       2.06312850      -0.31817628       2.76913011       0.00000000
Si      -0.93602340      -3.47598626      -0.62693639       0.00000000
Si      -1.42299666      -1.80748953       3.01795109       0.00000000
Si       2.78598096       0.02358792      -2.60787450       0.00000000
Si      -0.78222951      -0.93820626      -3.62894140       0.00000000
Si      -3.25099530       1.11327489      -1.69232096       0.00000000
