10
Lattice="16.28999089631971 0.0 0.0 0.0 16.28999089631971 0.0 0.0 0.0 34.51530692428229" Properties=species:S:1:pos:R:3:initial_magmoms:R:1 pbc="T T T"
Si       1.05415848      -1.11829221      -1.70909541       0.00000000
Si      -2.25549711       0.14646339      -0.66442003       0.00000000
Si       1.13893164       2.05394813      -0.28689139       0.00000000
Si       0.41603031      -0.64542609       2.26917561       0.00000000
Si       0.84984930       2.86652591       1.92730130       0.00000000
Si       3.07089306      -1.75309722      -0.67477463       0.00000000
Si      -0.33337485       1.41129459       3.33670013       0.00000000
Si      -3.03609762       2.10794948       0.40445059       0.00000000
Si       1.11757545       0.38805843      -3.55324929       0.00000000
Si      -0.26059113       3.46221863      -1.70688643       0.00000000
