10
Lattice="16.28999089631971 0.0 0.0 0.0 16.28999089631971 0.0 0.0 0.0 34.51530692428229" Properties=species:S:1:pos:R:3:initial_magmoms:R:1 pbc="T T T"
Si      -1.35584928      -1.35697541      -1.35714263       0.00000000
Si      -1.35200484       1.35749620       1.36145704       0.00000000
Si       1.35731538      -1.35440392       1.36149156       0.00000000
Si       1.35894438       1.35806635      -1.35686650       0.00000000
Si      -2.71303434      -0.00005701      -2.71452686       0.00000000
Si      -2.71379997       2.71499077      -0.00017258       0.00000000
Si       0.00174303      -2.71494583      -2.71501008       0.00000000
Si       0.00208512       2.71534915      -2.71466492       0.00000000
Si      -2.71612944      -2.71533679       0.00058676       0.00000000
Si       2.71658556       0.00026227      -2.71514814       0.00000000
