10
Lattice="16.28999089631971 0.0 0.0 0.0 16.28999089631971 0.0 0.0 0.0 34.51530692428229" Properties=species:S:1:pos:R:3:initial_magmoms:R:1 pbc="T T T"
Si      -1.36014984       1.35540945       1.35486462       0.00000000
Si       1.35826020       1.35609363      -1.35883388       0.00000000
Si      -1.35728280      -1.35873261      -1.35900645       0.00000000
Si       1.35977517      -1.36215351       1.36159510       0.00000000
Si      -2.71450044       2.71274112      -0.00314089       0.00000000
Si       0.00060273       2.71347417      -2.71708099       0.00000000
Si      -2.71414206      -0.00144981      -2.71680487       0.00000000
Si       2.71653669       2.71559187      -0.00459054       0.00000000
Si       2.71538010      -0.00115659      -2.71680487       0.00000000
Si      -2.71622718      -2.71679896      -0.00213995       0.00000000
