10
Lattice="16.28999089631971 0.0 0.0 0.0 16.28999089631971 0.0 0.0 0.0 34.51530692428229" Properties=species:S:1:pos:R:3:initial_magmoms:R:1 pbc="T T T"
Si      -0.79824258      -1.90771280      -1.14283697       0.00000000
Si      -0.48571893      -0.30503840       2.35998543       0.00000000
Si       1.90959525       0.99903312      -1.17783551       0.00000000
Si      -1.90676079       1.62183240       0.07762497       0.00000000
Si      -2.13987069      -0.45904568      -2.70168716       0.00000000
Si       0.57257721       2.28340188      -2.70282617       0.00000000
Si      -2.78922267       0.46967328       2.40188704       0.00000000
Si       0.91813698       1.32247107       3.37307928       0.00000000
Si      -0.88640406       3.53898621      -1.22225673       0.00000000
Si      -2.12551920      -3.29979104       0.23622289       0.00000000
