10
Lattice="16.28999089631971 0.0 0.0 0.0 16.28999089631971 0.0 0.0 0.0 34.51530692428229" Properties=species:S:1:pos:R:3:initial_magmoms:R:1 pbc="T T T"
Si       1.26235120       1.82276629      -0.68122899       0.00000000
Si      -2.33266351       0.37668996      -0.31257079       0.00000000
Si       0.87130975      -1.79267607      -1.30940793       0.00000000
Si       0.28598398      -0.38165256       2.38628611       0.00000000
Si      -0.44888887      -3.53244807      -0.63452976       0.00000000
Si       0.81066208       3.54041647       0.90671762       0.00000000
Si       3.55241569       1.34046826      -0.40531348       0.00000000
Si       0.97756942       2.08861909      -3.05519313       0.00000000
Si      -3.51578992      -1.58580936       0.37200619       0.00000000
Si      -2.76201904       0.70415154      -2.66437609       0.00000000
