10
Lattice="16.28999089631971 0.0 0.0 0.0 16.28999089631971 0.0 0.0 0.0 34.51530692428229" Properties=species:S:1:pos:R:3:initial_magmoms:R:1 pbc="T T T"
Si       0.00060273      -0.95714080      -2.10015405       0.00000000
Si       1.03430097      -1.28152357       1.63185011       0.00000000
Si      -2.19379059       0.27458750       0.82305247       0.00000000
Si       1.46746836       1.83655252      -0.26086684       0.00000000
Si      -1.67966190      -2.57589439      -1.91473772       0.00000000
Si      -1.72700064       0.32368556       3.17786060       0.00000000
Si       0.00127062       0.93613091      -3.53374813       0.00000000
Si       3.25622439      -0.49775757       1.61745722       0.00000000
Si       0.52877340       3.43707760       1.23057493       0.00000000
Si       1.40512653       2.56364038      -2.52065427       0.00000000
