10
Lattice="16.28999089631971 0.0 0.0 0.0 16.28999089631971 0.0 0.0 0.0 34.51530692428229" Properties=species:S:1:pos:R:3:initial_magmoms:R:1 pbc="T T T"
Si      -0.00066789      -1.89327171       1.43359407       0.00000000
Si       1.40385591       1.62750947       1.01309386       0.00000000
Si       0.48571893       0.30503840      -2.35998543       0.00000000
Si      -2.30350374       0.77471167       0.04190161       0.00000000
Si      -1.42104186       1.92687079      -2.28236046       0.00000000
Si      -0.36763272       3.21088117       1.14225021       0.00000000
Si      -0.00127062      -0.93613091       3.53374813       0.00000000
Si       1.46619774       0.90042161       3.27288129       0.00000000
Si      -0.31252365      -1.60267440      -3.50282240       0.00000000
Si      -2.59294446       2.54774785       1.64382693       0.00000000
