10
Lattice="16.28999089631971 0.0 0.0 0.0 16.28999089631971 0.0 0.0 0.0 34.51530692428229" Properties=species:S:1:pos:R:3:initial_magmoms:R:1 pbc="T T T"
Si      -0.05308911       1.64968830      -1.65828885       0.00000000
Si      -2.26230633       0.05561406       0.65589474       0.00000000
Si       0.93869496      -1.60052508      -1.49144176       0.00000000
Si       1.03304664       0.80488890       1.99139626       0.00000000
Si      -2.75201631       2.33393346       0.62489998       0.00000000
Si      -0.52877340      -3.43707760      -1.23057493       0.00000000
Si       2.12040414       2.45848680      -1.84632835       0.00000000
Si      -0.89513550       0.70993449      -3.62207285       0.00000000
Si      -3.54310758      -0.97950141      -0.97202062       0.00000000
Si       3.18495564      -1.95028767      -0.72047292       0.00000000
