10
Lattice="16.28999089631971 0.0 0.0 0.0 16.28999089631971 0.0 0.0 0.0 34.51530692428229" Properties=species:S:1:pos:R:3:initial_magmoms:R:1 pbc="T T T"
Si       1.81861560      -0.49461327      -1.41639478       0.00000000
Si      -1.11840624      -1.70722458       1.27541551       0.00000000
Si       1.74161277       1.34907264       1.15018355       0.00000000
Si      -0.22882563       0.06807591      -2.69957106       0.00000000
Si      -2.23951662       0.71456085      -1.52573934       0.00000000
Si      -2.41816905      -0.19186362       2.64479727       0.00000000
Si       0.31526037       2.52749124       2.66646599       0.00000000
Si      -2.75674041       2.69578323      -0.29751145       0.00000000
Si       2.94811533      -2.53615752      -0.26479092       0.00000000
Si       0.32022882      -2.89841454       2.68950843       0.00000000
