10
Lattice="16.28999089631971 0.0 0.0 0.0 16.28999089631971 0.0 0.0 0.0 34.51530692428229" Properties=species:S:1:pos:R:3:initial_magmoms:R:1 pbc="T T T"
Si      -1.35583299      -1.34260551       1.35582069       0.00000000
Si      -1.24317135       1.32695082      -1.48836645       0.00000000
Si       1.24833528      -1.43606124      -1.38531404       0.00000000
Si       1.35855342       1.37298636       1.35740839       0.00000000
Si       2.23826229       0.18324621      -2.82299960       0.00000000
Si       0.68303970       2.08018413      -2.99281500       0.00000000
Si      -2.69022834       2.72124450      -0.02614881       0.00000000
Si       0.00162900      -2.70251100       2.71582809       0.00000000
Si      -2.71389771      -2.71316466      -0.01947355       0.00000000
Si       2.72383461      -2.70342324      -0.01151086       0.00000000
