10
Lattice="16.28999089631971 0.0 0.0 0.0 16.28999089631971 0.0 0.0 0.0 34.51530692428229" Properties=species:S:1:pos:R:3:initial_magmoms:R:1 pbc="T T T"
Si       1.35708732      -1.35777150       1.35714263       0.00000000
Si      -1.35778779       1.35747828       1.35741875       0.00000000
Si      -1.35866745      -1.35695700      -1.35741875       0.00000000
Si       1.35837423       1.35850455      -1.35783293       0.00000000
Si       0.00029322       2.71275741       2.71507911       0.00000000
Si       2.71454931      -0.00009774       2.71452686       0.00000000
Si       2.71433754       2.71476108       0.00031064       0.00000000
Si      -0.00050499      -2.71598283       2.71362946       0.00000000
Si      -2.71526607       2.71443528       0.00003452       0.00000000
Si       2.71459818      -2.71524978      -0.00031064       0.00000000
