10
Lattice="16.28999089631971 0.0 0.0 0.0 16.28999089631971 0.0 0.0 0.0 34.51530692428229" Properties=species:S:1:pos:R:3:initial_magmoms:R:1 pbc="T T T"
Si       1.35402480      -1.35868374      -1.36218186       0.00000000
Si      -1.36207206       1.35532800      -1.36100834       0.00000000
Si       1.34534223       1.35239580       1.38230430       0.00000000
Si      -1.37451762      -1.35192339       1.39531658       0.00000000
Si       2.70837540      -2.71601541      -0.00417635       0.00000000
Si       2.71322982       2.71655298      -0.00231253       0.00000000
Si       2.71161711      -0.00047241      -2.71866870       0.00000000
Si      -2.71596654       2.71446786       0.00041418       0.00000000
Si      -2.71652040      -2.71637379      -0.00203640       0.00000000
Si      -0.00325800       2.71477737      -2.71839258       0.00000000
