10
Lattice="16.28999089631971 0.0 0.0 0.0 16.28999089631971 0.0 0.0 0.0 34.51530692428229" Properties=species:S:1:pos:R:3:initial_magmoms:R:1 pbc="T T T"
Si      -0.22444362       1.40928048       1.86683045       0.00000000
Si      -2.00513610      -0.41427099      -1.17493622       0.00000000
Si       0.66634245      -1.62794115       1.61152058       0.00000000
Si       1.47435903       1.34048781      -1.33135968       0.00000000
Si       0.77755428      -0.06344955       3.36897196       0.00000000
Si       0.88560585       3.40726527      -0.45532618       0.00000000
Si      -1.53385011      -2.47106268      -2.34562705       0.00000000
Si      -2.14708716       1.35988920      -2.77665445       0.00000000
Si       2.62747926      -2.65870719       0.90699374       0.00000000
Si      -2.49285870       1.83003489       2.33965590       0.00000000
