10
Lattice="16.28999089631971 0.0 0.0 0.0 16.28999089631971 0.0 0.0 0.0 34.51530692428229" Properties=species:S:1:pos:R:3:initial_magmoms:R:1 pbc="T T T"
Si       1.28184381      -0.44455410      -1.87552831       0.00000000
Si      -2.15094789       0.17611119      -0.93298378       0.00000000
Si       0.62534052       2.23094808       0.58831374       0.00000000
Si       0.69015843      -0.98476308       2.09363066       0.00000000
Si       3.34402749       0.09163125      -0.95500456       0.00000000
Si      -0.94918572       0.10287135       3.38619511       0.00000000
Si      -0.55304550       2.30195619       2.61332792       0.00000000
Si       2.95257879       1.80458991       0.73379584       0.00000000
Si       0.27984591       1.02817593      -3.37766982       0.00000000
Si      -2.87565741      -0.64021329       2.24829383       0.00000000
