10
Lattice="16.28999089631971 0.0 0.0 0.0 16.28999089631971 0.0 0.0 0.0 34.51530692428229" Properties=species:S:1:pos:R:3:initial_magmoms:R:1 pbc="T T T"
Si      -1.35853713       1.35679410      -1.36463245       0.00000000
Si       1.36011726      -1.35957969      -1.36477051       0.00000000
Si       1.35397593       1.36596537       1.37091424       0.00000000
Si      -1.35578412      -1.36011726       1.38133787       0.00000000
Si      -2.71067229      -2.71516833      -0.00362411       0.00000000
Si      -2.71290402       2.71816569      -0.00828368       0.00000000
Si       2.71852407      -2.71308321      -0.00635082       0.00000000
Si       2.71490769       2.71772697      -0.00372766       0.00000000
Si      -2.71288773      -0.00050499      -2.72256893       0.00000000
Si       0.00203625      -2.71485882      -2.72243087       0.00000000
