10
Lattice="16.28999089631971 0.0 0.0 0.0 16.28999089631971 0.0 0.0 0.0 34.51530692428229" Properties=species:S:1:pos:R:3:initial_magmoms:R:1 pbc="T T T"
Si       1.36093176       1.35176160      -1.37464190       0.00000000
Si      -1.35397593      -1.36596537      -1.37091424       0.00000000
Si       1.39347918      -1.40778180       1.33681310       0.00000000
Si      -1.37127591       1.23253398       1.56085208       0.00000000
Si      -2.71290402       2.68120109       0.00200189       0.00000000
Si       2.71643895       2.70572732       0.01953567       0.00000000
Si      -2.70976005      -2.72608263       0.01042363       0.00000000
Si       0.00361638       2.70616552      -2.73613345       0.00000000
Si      -2.71251306      -0.00917127      -2.73554669       0.00000000
Si       2.72127708      -0.01049076      -2.73592636       0.00000000
