10
Lattice="16.28999089631971 0.0 0.0 0.0 16.28999089631971 0.0 0.0 0.0 34.51530692428229" Properties=species:S:1:pos:R:3:initial_magmoms:R:1 pbc="T T T"
Si      -0.00060273       0.95714080       2.10015405       0.00000000
Si      -1.68026463      -1.61875359       0.18541633       0.00000000
Si       0.00066789       1.89327171      -1.43359407       0.00000000
Si      -1.06059303      -2.64863997      -1.82655106       0.00000000
Si       1.46686563       2.79369332       1.83928722       0.00000000
Si      -0.96508476      -2.99639889       2.04834655       0.00000000
Si      -2.30283585       2.66798339      -1.39169247       0.00000000
Si       1.36418976      -3.04776126      -1.82534303       0.00000000
Si       1.40452380       3.52078118      -0.42050022       0.00000000
Si      -2.19439332       1.23172830       2.92320652       0.00000000
