10
Lattice="16.28999089631971 0.0 0.0 0.0 16.28999089631971 0.0 0.0 0.0 34.51530692428229" Properties=species:S:1:pos:R:3:initial_magmoms:R:1 pbc="T T T"
Si      -0.01528002      -2.25323280      -0.44103684       0.00000000
Si      -1.03430097       1.28152357      -1.63185011       0.00000000
Si       2.22192342       0.78376600      -0.01439289       0.00000000
Si      -0.53307396       0.74094870       2.19866080       0.00000000
Si       1.92756312       0.70817517       2.28094533       0.00000000
Si      -2.76130161       1.60520913       1.54601049       0.00000000
Si       2.25313506      -2.67398721      -0.91386229       0.00000000
Si       0.43316739       3.11807609      -1.89271694       0.00000000
Si      -3.22809156       1.55611107      -0.80879764       0.00000000
Si      -1.99878300      -2.67201612      -1.68365761       0.00000000
