10
Lattice="16.28999089631971 0.0 0.0 0.0 16.28999089631971 0.0 0.0 0.0 34.51530692428229" Properties=species:S:1:pos:R:3:initial_magmoms:R:1 pbc="T T T"
Si      -1.17838602       0.07100811       2.02501419       0.00000000
Si       2.32723827      -0.42635817       0.14548210       0.00000000
Si      -0.62534052      -2.23094808      -0.58831374       0.00000000
Si      -0.67106655       2.17939023      -0.77117593       0.00000000
Si      -3.19512060       0.70581312       0.99069341       0.00000000
Si       0.06481791      -3.21571116       1.50531692       0.00000000
Si       0.65650329      -2.67550218      -2.46384205       0.00000000
Si       2.73038319      -0.75360798       2.44737824       0.00000000
Si      -2.77628841      -2.05483689      -1.52129752       0.00000000
Si       2.71868697      -2.13931683      -1.54331830       0.00000000
