10
Lattice="16.28999089631971 0.0 0.0 0.0 16.28999089631971 0.0 0.0 0.0 34.51530692428229" Properties=species:S:1:pos:R:3:initial_magmoms:R:1 pbc="T T T"
Si      -1.39191534       1.26407794       1.38155187       0.00000000
Si       1.32763500      -1.46500924       1.35051914       0.00000000
Si      -1.94224041      -0.85955488      -1.16023511       0.00000000
Si       1.23597117       1.62633496      -1.57274748       0.00000000
Si       0.92608650      -1.50579940      -2.91342630       0.00000000
Si      -1.24372521      -0.67728770      -3.35750049       0.00000000
Si      -2.83055040       2.45526790      -0.03254105       0.00000000
Si      -0.04947273       2.61958513       2.72773933       0.00000000
Si       2.75304258       2.59687687      -0.04266439       0.00000000
Si       2.66900247      -0.09659807       2.73036249       0.00000000
