10
Lattice="16.28999089631971 0.0 0.0 0.0 16.28999089631971 0.0 0.0 0.0 34.51530692428229" Properties=species:S:1:pos:R:3:initial_magmoms:R:1 pbc="T T T"
Si       1.66640577       0.99600318      -1.26050109       0.00000000
Si       1.27139893      -1.35633798       1.41201854       0.00000000
Si      -1.51707141      -0.97054191      -1.53008309       0.00000000
Si      -1.43470917       1.38649077       1.37766889       0.00000000
Si       3.26595671      -0.79182432      -1.46878387       0.00000000
Si       2.59502048      -2.73671837       0.02696337       0.00000000
Si       2.61693216       2.73191445       0.04314416       0.00000000
Si      -2.75304258      -2.59687687       0.04266439       0.00000000
Si       2.63233435       0.02376711       2.76840183       0.00000000
Si      -0.08404011      -2.69347494       2.77302689       0.00000000
