10
Lattice="16.28999089631971 0.0 0.0 0.0 16.28999089631971 0.0 0.0 0.0 34.51530692428229" Properties=species:S:1:pos:R:3:initial_magmoms:R:1 pbc="T T T"
Si      -1.67580117      -1.13964255      -1.28680039       0.00000000
Si      -1.79276337       0.42317673       1.73594833       0.00000000
Si       1.22570262       1.79455201      -1.32041832       0.00000000
Si       1.78280433      -1.97748612       0.21696334       0.00000000
Si       2.39242012       0.31087347      -2.71870322       0.00000000
Si      -0.32648418      -2.39939712      -2.72981715       0.00000000
Si      -0.87623910      -0.85024189       3.59698021       0.00000000
Si      -2.47603113      -3.05917470      -0.07175736       0.00000000
Si       3.57303950      -1.16714007      -1.23060944       0.00000000
Si       0.96682779      -3.68977689      -1.23054041       0.00000000
