10
Lattice="16.28999089631971 0.0 0.0 0.0 16.28999089631971 0.0 0.0 0.0 34.51530692428229" Properties=species:S:1:pos:R:3:initial_magmoms:R:1 pbc="T T T"
Si      -1.16486532      -0.00777033       2.01286479       0.00000000
Si      -0.13789485       1.63818756      -1.72200414       0.00000000
Si      -0.98435583      -1.64362842      -1.42006407       0.00000000
Si       2.33673534      -0.37406727       0.58613927       0.00000000
Si       0.95418675      -1.64344923      -2.81586386       0.00000000
Si       2.88284130      -1.46038221      -1.46041248       0.00000000
Si      -3.13626483       1.11154815       1.29180511       0.00000000
Si       1.24698321       3.29756841      -0.79588891       0.00000000
Si       0.80558937       0.56698974      -3.67560612       0.00000000
Si      -0.33417306       1.52593317       3.52598218       0.00000000
