10
Lattice="16.28999089631971 0.0 0.0 0.0 16.28999089631971 0.0 0.0 0.0 34.51530692428229" Properties=species:S:1:pos:R:3:initial_magmoms:R:1 pbc="T T T"
Si       1.30707702       1.82716459      -0.67853680       0.00000000
Si       0.76382181      -1.80591984      -1.39900972       0.00000000
Si       0.42935553      -0.32746158       2.35180530       0.00000000
Si      -2.32153677       0.55147840      -0.38919482       0.00000000
Si      -0.36294120      -3.72209625      -0.69969469       0.00000000
Si       0.71171010       2.21335162      -3.01284283       0.00000000
Si      -3.39793110       0.47485513       1.70015594       0.00000000
Si      -0.75377088      -2.28996090       3.03638228       0.00000000
Si      -3.36124602      -1.11634785      -1.61635273       0.00000000
Si       2.76201904      -0.70415154       2.66437609       0.00000000
