10
Lattice="16.28999089631971 0.0 0.0 0.0 16.28999089631971 0.0 0.0 0.0 34.51530692428229" Properties=species:S:1:pos:R:3:initial_magmoms:R:1 pbc="T T T"
Si       1.35690788       1.35762489      -1.35721166       0.00000000
Si      -1.35711990       1.35725022       1.35797099       0.00000000
Si      -1.35731538      -1.35803214      -1.35707360       0.00000000
Si       1.35782781      -1.35812988       1.35703908       0.00000000
Si       0.00004887      -2.71457049      -2.71287013       0.00000000
Si       0.00115659       2.71674846       2.71221433       0.00000000
Si      -2.71477737       2.71463076      -0.00027612       0.00000000
Si       2.71536285       2.71427238       0.00003452       0.00000000
Si       2.71532213      -0.00148239       2.71431977       0.00000000
Si      -2.71502172      -2.71538010      -0.00048321       0.00000000
