10
Lattice="16.28999089631971 0.0 0.0 0.0 16.28999089631971 0.0 0.0 0.0 34.51530692428229" Properties=species:S:1:pos:R:3:initial_magmoms:R:1 pbc="T T T"
Si       1.38487806       1.65938085       0.92611523       0.00000000
Si      -1.91101248       1.12695849      -0.82391535       0.00000000
Si       0.13789485      -1.63818756       1.72200414       0.00000000
Si       0.94348422      -1.07119782      -1.95360198       0.00000000
Si      -0.84646098      -3.28181598       0.30194007       0.00000000
Si       1.09208160      -3.28163679      -1.09385972       0.00000000
Si      -1.20964653       1.98957915      -2.83481277       0.00000000
Si      -2.10637845       2.94300027       0.62351937       0.00000000
Si       0.96612732       2.61868266      -2.51223253       0.00000000
Si       1.57916889       3.49788654      -0.45001082       0.00000000
