10
Lattice="16.28999089631971 0.0 0.0 0.0 16.28999089631971 0.0 0.0 0.0 34.51530692428229" Properties=species:S:1:pos:R:3:initial_magmoms:R:1 pbc="T T T"
Si      -1.07652465       1.94820255       0.76202937       0.00000000
Si      -1.09916775      -1.74167793       1.32065993       0.00000000
Si       1.26219685       1.71354510      -1.23326712       0.00000000
Si       2.30298802      -0.38449287       2.03319432       0.00000000
Si      -3.25229850       1.31909904       0.43944913       0.00000000
Si      -1.05326253       3.14709768      -1.27965572       0.00000000
Si      -2.84470641      -2.41192998      -0.39540758       0.00000000
Si      -2.04265197      -0.67048011       3.27426191       0.00000000
Si      -0.46348308       2.82740643       2.82425108       0.00000000
Si      -0.65777391       0.98890074       4.20037714       0.00000000
