10
Lattice="16.28999089631971 0.0 0.0 0.0 16.28999089631971 0.0 0.0 0.0 34.51530692428229" Properties=species:S:1:pos:R:3:initial_magmoms:R:1 pbc="T T T"
Si       1.99878300       0.42450111      -1.08001907       0.00000000
Si      -0.71345313       1.35467640       1.73812280       0.00000000
Si      -1.75521492      -0.17948322      -1.53997031       0.00000000
Si       0.46110474      -2.07374958       0.99417946       0.00000000
Si      -2.34098703      -2.48813460      -1.23999761       0.00000000
Si      -0.36958752      -3.60745308      -0.51893793       0.00000000
Si      -0.34121034       0.08151516       3.66856499       0.00000000
Si      -0.80606178      -2.10233853       2.97080316       0.00000000
Si      -3.58704171       0.89987589      -0.49660651       0.00000000
Si      -3.00203523       1.72537164       1.57489982       0.00000000
