10
Lattice="16.28999089631971 0.0 0.0 0.0 16.28999089631971 0.0 0.0 0.0 34.51530692428229" Properties=species:S:1:pos:R:3:initial_magmoms:R:1 pbc="T T T"
Si       1.72982111       0.90679914      -1.36487893       0.00000000
Si      -1.42100928      -1.02291426      -1.66064076       0.00000000
Si       1.27387800      -1.40804244       1.62368033       0.00000000
Si      -1.41675759       1.30354209       1.60804834       0.00000000
Si       3.39220421      -0.88834257      -0.99436170       0.00000000
Si      -2.70361872      -2.58390351       0.11771107       0.00000000
Si       2.73178643       2.60793126       0.06824370       0.00000000
Si       2.63688741      -2.76667731       0.27596384       0.00000000
Si      -2.91794625       2.53977390       0.19510824       0.00000000
Si       2.65281251      -0.04815324       3.00073830       0.00000000
