10
Lattice="16.28999089631971 0.0 0.0 0.0 16.28999089631971 0.0 0.0 0.0 34.51530692428229" Properties=species:S:1:pos:R:3:initial_magmoms:R:1 pbc="T T T"
Si       1.35372533      -1.35795069       1.36183671       0.00000000
Si      -1.36018242       1.35883035       1.36214735       0.00000000
Si       1.36193532       1.34643366      -1.38688103       0.00000000
Si      -1.35531171      -1.36269108      -1.39117129       0.00000000
Si       2.71425839      -2.71438641       0.00151867       0.00000000
Si       2.71221725       2.71893132       0.00086288       0.00000000
Si       2.71276460       0.00117288       2.71922095       0.00000000
Si      -2.71875213       2.71334385       0.00220898       0.00000000
Si      -2.71889874      -2.71406061       0.00134610       0.00000000
Si      -0.00275301      -2.71412577       2.71911740       0.00000000
