10
Lattice="16.28999089631971 0.0 0.0 0.0 16.28999089631971 0.0 0.0 0.0 34.51530692428229" Properties=species:S:1:pos:R:3:initial_magmoms:R:1 pbc="T T T"
Si      -1.33086042       1.32869385       1.36266508       0.00000000
Si      -1.35979146      -1.34257293      -1.35141308       0.00000000
Si       1.35617508       1.36801791      -1.35220694       0.00000000
Si       1.25859798      -1.44080163       1.43072930       0.00000000
Si      -2.08889928      -0.52036776       2.62192224       0.00000000
Si       0.56360142       2.06347059       2.66054489       0.00000000
Si       2.36157759       0.21318723       2.69150514       0.00000000
Si      -0.00394218      -2.70192456      -2.71038502       0.00000000
Si       2.70966231       0.01275507      -2.71152403       0.00000000
Si       2.71300176      -2.71264338       0.03075316       0.00000000
