10
Lattice="16.28999089631971 0.0 0.0 0.0 16.28999089631971 0.0 0.0 0.0 34.51530692428229" Properties=species:S:1:pos:R:3:initial_magmoms:R:1 pbc="T T T"
Si      -1.65540609      -1.70641008      -0.03047703       0.00000000
Si       0.13071096       1.50918705       1.87476897       0.00000000
Si      -1.05904548       1.57503123      -1.61649079       0.00000000
Si       1.83036462      -1.14947127      -1.24338011       0.00000000
Si       0.66005329      -3.13996266       0.01591157       0.00000000
Si      -2.21874687       1.97309367       1.83507635       0.00000000
Si      -2.16202509      -0.07895763      -2.87726662       0.00000000
Si       3.40495928      -1.56581109       0.59331846       0.00000000
Si       1.55478506       3.41174502       0.95255397       0.00000000
Si      -1.67866821      -2.90530521       2.01120806       0.00000000
