10
Lattice="16.28999089631971 0.0 0.0 0.0 16.28999089631971 0.0 0.0 0.0 34.51530692428229" Properties=species:S:1:pos:R:3:initial_magmoms:R:1 pbc="T T T"
Si      -1.26219685      -1.71354510       1.23326712       0.00000000
Si       1.17031133       1.99049139      -1.25929168       0.00000000
Si      -2.31545938       1.43355258      -0.04638860       0.00000000
Si      -0.00221032       0.41489001      -2.78963221       0.00000000
Si      -2.33872150       0.23465745       1.99529649       0.00000000
Si      -0.66005329       3.13996266      -0.01591157       0.00000000
Si       2.74490599       1.57415157       0.57740689       0.00000000
Si       2.31786364       1.20208797       3.01115157       0.00000000
Si       1.04079117      -2.09803797       3.26646144       0.00000000
Si       4.02277504      -0.68374017      -0.91838380       0.00000000
