10
Lattice="16.28999089631971 0.0 0.0 0.0 16.28999089631971 0.0 0.0 0.0 34.51530692428229" Properties=species:S:1:pos:R:3:initial_magmoms:R:1 pbc="T T T"
Si       1.12676301       1.91617641      -0.69931502       0.00000000
Si       0.40314492      -0.32724981       2.30189614       0.00000000
Si      -2.32723827       0.42635817      -0.14548210       0.00000000
Si       0.39144870      -1.71295866      -1.68880040       0.00000000
Si      -0.11111409      -2.62399320       2.27290326       0.00000000
Si       0.88492167       1.48551768      -3.07683424       0.00000000
Si      -2.95257879      -1.80458991      -0.73379584       0.00000000
Si       1.88522541      -0.61317189      -3.09336708       0.00000000
Si       3.44420677       1.48960647      -0.28789234       0.00000000
Si       0.36294120       3.72209625       0.69969469       0.00000000
