10
Lattice="16.28999089631971 0.0 0.0 0.0 16.28999089631971 0.0 0.0 0.0 34.51530692428229" Properties=species:S:1:pos:R:3:initial_magmoms:R:1 pbc="T T T"
Si      -0.81616158       2.18812167      -0.36862368       0.00000000
Si      -2.09323405      -1.11200427      -0.11331382       0.00000000
Si       0.82914471       0.03903084       2.28463847       0.00000000
Si       1.60103007      -0.50021703      -1.88336329       0.00000000
Si      -2.77857064      -0.15105717       1.98587381       0.00000000
Si       3.25917288       1.03433355      -1.16220006       0.00000000
Si       0.83523717       3.55157838       0.57336860       0.00000000
Si       1.23691599       2.42631405       2.61757331       0.00000000
Si      -0.38911923       2.56018527      -2.80236837       0.00000000
Si      -1.68365295      -3.47082885       0.11103580       0.00000000
