10
Lattice="16.28999089631971 0.0 0.0 0.0 16.28999089631971 0.0 0.0 0.0 34.51530692428229" Properties=species:S:1:pos:R:3:initial_magmoms:R:1 pbc="T T T"
Si       1.34456031       1.35957969       1.37883551       0.00000000
Si      -1.36621461      -1.35483930       1.37783456       0.00000000
Si      -1.28724069       1.30124520      -1.55466003       0.00000000
Si       1.40572926      -1.34374581      -1.46250411       0.00000000
Si      -0.62682291      -2.19502863      -2.61726543       0.00000000
Si       0.55097667       1.98700533      -3.03820956       0.00000000
Si      -2.28920601      -0.39988692      -2.98778267       0.00000000
Si       2.50176933       0.27515439      -2.85134358       0.00000000
Si      -2.71853767       2.70598077      -0.01056514       0.00000000
Si       2.70326034      -2.72191239       0.00312709       0.00000000
