10
Lattice="16.28999089631971 0.0 0.0 0.0 16.28999089631971 0.0 0.0 0.0 34.51530692428229" Properties=species:S:1:pos:R:3:initial_magmoms:R:1 pbc="T T T"
Si      -1.35625930      -1.35560493       1.35458849       0.00000000
Si      -1.35748105       1.35725022      -1.35800551       0.00000000
Si       1.35794696      -1.35808101      -1.35759133       0.00000000
Si       1.35790461       1.35772263       1.35845421       0.00000000
Si       2.71460260      -0.00084708      -2.71362946       0.00000000
Si      -0.00100271       2.71342530      -2.71528620       0.00000000
Si      -2.71513852      -0.00190593      -2.71435428       0.00000000
Si      -0.00050801      -2.71472850      -2.71483750       0.00000000
Si      -2.71453579      -2.71510317       0.00034515       0.00000000
Si      -2.71499191       2.71502172      -0.00051773       0.00000000
