10
Lattice="16.28999089631971 0.0 0.0 0.0 16.28999089631971 0.0 0.0 0.0 34.51530692428229" Properties=species:S:1:pos:R:3:initial_magmoms:R:1 pbc="T T T"
Si       1.35580041      -1.35733167      -1.35921355       0.00000000
Si      -1.35870166       1.35935163      -1.35907548       0.00000000
Si       1.36972836       1.34030862       1.37471093       0.00000000
Si      -1.35300505      -1.35653346       1.39179601       0.00000000
Si      -0.08109162       2.62127277       2.68895100       0.00000000
Si       2.71554300      -2.71451673      -0.00134610       0.00000000
Si       2.71373481       0.00140094      -2.71749518       0.00000000
Si      -0.00125433      -2.71414206      -2.71752969       0.00000000
Si       2.71609686       2.71632492       0.00110449       0.00000000
Si      -2.71831949      -2.71423980       0.00182931       0.00000000
