10
Lattice="16.28999089631971 0.0 0.0 0.0 16.28999089631971 0.0 0.0 0.0 34.51530692428229" Properties=species:S:1:pos:R:3:initial_magmoms:R:1 pbc="T T T"
Si       1.91673516       0.76035204       1.07898361       0.00000000
Si      -0.35232826       0.90163521      -2.12055261       0.00000000
Si      -1.66643672       0.99144198       1.40605084       0.00000000
Si      -0.45391759      -2.18707911      -1.09089140       0.00000000
Si      -2.77282094      -1.04801715       1.22477635       0.00000000
Si      -0.98738807      -2.22211890       2.32930130       0.00000000
Si      -2.72934293      -1.77463260      -1.02289621       0.00000000
Si      -2.53505210       0.06387309      -2.39902226       0.00000000
Si       3.56156904       0.39029211      -0.45919190       0.00000000
Si      -0.15492930      -3.62024073       0.64484984       0.00000000
