10
Lattice="16.28999089631971 0.0 0.0 0.0 16.28999089631971 0.0 0.0 0.0 34.51530692428229" Properties=species:S:1:pos:R:3:initial_magmoms:R:1 pbc="T T T"
Si      -1.35773154       1.35759231       1.35627974       0.00000000
Si      -1.35709974      -1.35764118      -1.35731520       0.00000000
Si       1.35803866       1.35769600      -1.35762584       0.00000000
Si       1.35782689      -1.35749457       1.36166413       0.00000000
Si      -2.71222051      -0.00506619       2.71249046       0.00000000
Si      -2.71388209       2.71224820      -0.00179480       0.00000000
Si       0.00668379       2.70520441       2.72360439       0.00000000
Si       0.00081939       2.71438545      -2.71459589       0.00000000
Si      -2.71425676      -0.00009774      -2.71483750       0.00000000
Si       2.71452325      -2.71539639       0.00020709       0.00000000
