10
Lattice="16.28999089631971 0.0 0.0 0.0 16.28999089631971 0.0 0.0 0.0 34.51530692428229" Properties=species:S:1:pos:R:3:initial_magmoms:R:1 pbc="T T T"
Si       1.35669636      -1.35790182      -1.36145704       0.00000000
Si      -1.35782689       1.35749457      -1.36166413       0.00000000
Si       1.34824185       1.35588186       1.37277807       0.00000000
Si      -1.36819873      -1.34965908       1.37408965       0.00000000
Si      -2.71795912      -2.70888039      -0.00096643       0.00000000
Si      -2.71555842       2.71508688      -0.00538439       0.00000000
Si       2.71780731      -2.71547784      -0.00034515       0.00000000
Si       2.71557558       2.71785618      -0.00500472       0.00000000
Si      -2.71492662      -0.00014661      -2.71897934       0.00000000
Si       0.00021177       2.71519057      -2.71928998       0.00000000
