10
Lattice="16.28999089631971 0.0 0.0 0.0 16.28999089631971 0.0 0.0 0.0 34.31420841018396" Properties=species:S:1:pos:R:3:initial_magmoms:R:1 pbc="T T T"
Si       1.33795960      -1.37953561       1.50277787       0.00000000
Si      -1.35427322       1.32974293       1.53474157       0.00000000
Si      -1.71200799      -1.12087092      -1.34152300       0.00000000
Si       0.83671630       1.83070930      -1.40445530       0.00000000
Si      -2.67113061       2.54294068       0.05968960       0.00000000
Si      -3.56284521       0.58450801      -1.15386322       0.00000000
Si      -2.70173952      -2.72292304       0.11412569       0.00000000
Si       0.65610907       0.70311550      -3.71860680       0.00000000
Si      -0.94800632       3.52838794      -1.25391878       0.00000000
Si       2.65062409       2.87142853      -0.09338617       0.00000000
