10
Lattice="16.28999089631971 0.0 0.0 0.0 16.28999089631971 0.0 0.0 0.0 34.31420841018396" Properties=species:S:1:pos:R:3:initial_magmoms:R:1 pbc="T T T"
Si       0.74306346       1.37753127       1.80750194       0.00000000
Si       2.34673251      -0.70051235       0.11296244       0.00000000
Si      -0.17973734       1.70847891      -1.78440846       0.00000000
Si      -1.32100969      -2.11725107      -0.16717892       0.00000000
Si      -2.55078172       1.37546244       0.27303831       0.00000000
Si       2.87954583       1.47222504       0.98179868       0.00000000
Si      -1.22646921       3.24918711      -0.34362268       0.00000000
Si      -2.98308574      -0.94255732      -1.54887560       0.00000000
Si      -1.65758473       0.37696689      -3.16370316       0.00000000
Si      -0.00519325      -3.42527291      -1.70407886       0.00000000
