10
Lattice="16.28999089631971 0.0 0.0 0.0 16.28999089631971 0.0 0.0 0.0 34.31420841018396" Properties=species:S:1:pos:R:3:initial_magmoms:R:1 pbc="T T T"
Si      -1.82073330       0.31311009      -1.41192752       0.00000000
Si       0.73265904       1.89801306       1.17605152       0.00000000
Si      -0.27860787      -1.51456275       1.83203661       0.00000000
Si       1.47937635      -0.20955456      -1.88220401       0.00000000
Si       2.92964247       1.27513233       1.66142627       0.00000000
Si      -0.92465298      -0.16125471       3.61997944       0.00000000
Si      -1.33734384       2.27118438      -2.67369599       0.00000000
Si      -2.35354662      -1.85962730      -2.28076377       0.00000000
Si       3.72276999       0.56363400      -0.47713933       0.00000000
Si      -2.37783501      -2.51252399       1.58953796       0.00000000
