10
Lattice="16.28999089631971 0.0 0.0 0.0 16.28999089631971 0.0 0.0 0.0 34.31420841018396" Properties=species:S:1:pos:R:3:initial_magmoms:R:1 pbc="T T T"
Si       1.95206328      -1.35969372       0.22849844       0.00000000
Si      -1.47937635       0.20955456       1.88220401       0.00000000
Si      -0.93406860       1.13329530      -2.00429403       0.00000000
Si       2.24339364       0.77318856       1.40506468       0.00000000
Si      -3.30010965       0.52266465       0.47027649       0.00000000
Si       2.01269466      -1.71184442      -2.14865399       0.00000000
Si       2.23704054       2.94207174       0.21432667       0.00000000
Si      -0.74671731       2.10756762       3.05825553       0.00000000
Si      -2.81672019       2.48073894      -0.79149197       0.00000000
Si       1.45026612       1.48468689       3.54363028       0.00000000
