10
Lattice="16.28999089631971 0.0 0.0 0.0 16.28999089631971 0.0 0.0 0.0 34.31420841018396" Properties=species:S:1:pos:R:3:initial_magmoms:R:1 pbc="T T T"
Si      -0.48338946      -1.95807429       1.26176846       0.00000000
Si      -0.08192241       1.81770336       1.58250355       0.00000000
Si      -1.26768780       1.39818699      -1.55326783       0.00000000
Si       1.88265159      -1.34744364      -1.21280206       0.00000000
Si      -2.25199476      -0.28732302      -2.91190535       0.00000000
Si       1.99516662       1.68726933       2.69401001       0.00000000
Si       1.33734384      -2.27118438       2.67369599       0.00000000
Si       2.81672019      -2.48073894       0.79149197       0.00000000
Si       0.49322862       2.50892064      -2.91121907       0.00000000
Si      -2.61987183      -2.05276806       2.08747172       0.00000000
