10
Lattice="16.28999089631971 0.0 0.0 0.0 16.28999089631971 0.0 0.0 0.0 34.31420841018396" Properties=species:S:1:pos:R:3:initial_magmoms:R:1 pbc="T T T"
Si       0.99067635       0.04404816       2.10390824       0.00000000
Si      -1.66860099       1.67198931       0.02216699       0.00000000
Si      -0.92199771      -2.24635842      -0.04683892       0.00000000
Si       1.72879254       0.74705940      -1.60171952       0.00000000
Si       3.25550763       0.52696521       1.52567919       0.00000000
Si      -2.77869933      -1.96727814      -1.43220723       0.00000000
Si       0.98357391      -0.17537814      -3.61387151       0.00000000
Si       0.70483572      -3.48430068      -1.22882680       0.00000000
Si      -2.48373630       1.76814918      -2.25568006       0.00000000
Si      -3.44428755       0.96065388       1.47029602       0.00000000
