10
Lattice="16.28999089631971 0.0 0.0 0.0 16.28999089631971 0.0 0.0 0.0 34.31420841018396" Properties=species:S:1:pos:R:3:initial_magmoms:R:1 pbc="T T T"
Si      -0.99067635      -0.04404816      -2.10390824       0.00000000
Si      -0.33291873       1.79395254       1.46590380       0.00000000
Si      -0.58424085      -1.63209510       1.63387195       0.00000000
Si       2.26483128       0.48291705      -0.57822905       0.00000000
Si       1.52203986       1.20521565       2.74898140       0.00000000
Si       3.22726077       0.11202633       1.54815501       0.00000000
Si       0.17063775       3.59101647       0.11999685       0.00000000
Si      -1.91267406      -2.29040658      -2.15074716       0.00000000
Si       2.15024742       2.88442143      -0.89110618       0.00000000
Si      -2.65927734       1.62794115      -2.08174125       0.00000000
