10
Lattice="16.28999089631971 0.0 0.0 0.0 16.28999089631971 0.0 0.0 0.0 34.31420841018396" Properties=species:S:1:pos:R:3:initial_magmoms:R:1 pbc="T T T"
Si      -1.34156295      -1.36106208      -1.37373579       0.00000000
Si       1.36928853       1.35765747      -1.37061319       0.00000000
Si       1.26530946      -1.45634229       1.37013279       0.00000000
Si      -1.51374825       1.12616028       1.50629165       0.00000000
Si       0.12272886       2.46288510       2.69280901       0.00000000
Si      -0.49560696      -2.56707594       2.72808404       0.00000000
Si      -2.70873378       2.69821044       0.01290215       0.00000000
Si      -2.70451793      -0.00118917      -2.73069192       0.00000000
Si      -2.69809152      -2.73966849      -0.02141208       0.00000000
Si       0.01099575       2.71555929      -2.73172134       0.00000000
