10
Lattice="16.28999089631971 0.0 0.0 0.0 16.28999089631971 0.0 0.0 0.0 34.31420841018396" Properties=species:S:1:pos:R:3:initial_magmoms:R:1 pbc="T T T"
Si       0.98231958       1.67746275      -1.30647990       0.00000000
Si      -2.09684880      -0.69253677      -0.79832050       0.00000000
Si      -0.62376039       0.96664860       2.06177036       0.00000000
Si       1.78197939      -1.58003226      -0.03819174       0.00000000
Si      -0.67336344      -0.94449420       3.39515262       0.00000000
Si      -3.41209363       1.15487955      -0.24651341       0.00000000
Si       1.39341402       0.51992793      -3.34083320       0.00000000
Si      -2.31047586      -2.83718043       0.11495266       0.00000000
Si       2.20563342      -1.53564201      -2.49011487       0.00000000
Si       3.37051503      -0.56734812       1.46350181       0.00000000
