10
Lattice="16.28999089631971 0.0 0.0 0.0 16.28999089631971 0.0 0.0 0.0 34.31420841018396" Properties=species:S:1:pos:R:3:initial_magmoms:R:1 pbc="T T T"
Si       0.67515534       2.24277462      -0.35491206       0.00000000
Si      -0.78581331      -1.36651923      -1.76893275       0.00000000
Si      -0.87083082      -0.33208794       2.19247326       0.00000000
Si       2.24831322      -0.76900203       0.33840691       0.00000000
Si       2.89144242       1.45981206       0.01080898       0.00000000
Si      -2.13216552      -2.28181849       1.86370864       0.00000000
Si       0.79513119      -3.12027131      -1.69203456       0.00000000
Si      -0.57586779       3.40333938       1.36900042       0.00000000
Si       0.98587080      -0.61116822       3.57784157       0.00000000
Si      -3.68801432       1.00924695       0.04879483       0.00000000
