10
Lattice="16.28999089631971 0.0 0.0 0.0 16.28999089631971 0.0 0.0 0.0 34.31420841018396" Properties=species:S:1:pos:R:3:initial_magmoms:R:1 pbc="T T T"
Si      -0.04960305      -1.91114280       1.33338226       0.00000000
Si       0.93323781       1.70264709       1.32864689       0.00000000
Si      -2.06861823       1.10086191      -0.26919512       0.00000000
Si       0.62376039      -0.96664860      -2.06177036       0.00000000
Si       0.01809819       0.79918740       3.35586283       0.00000000
Si      -1.47308841      -1.65918537      -2.86009087       0.00000000
Si      -2.78833324       0.18823095      -2.30828378       0.00000000
Si       1.95833493      -1.93691358       2.53276745       0.00000000
Si      -1.15771401      -1.31712795       3.30964156       0.00000000
Si       1.60607997       0.71081415      -3.36825027       0.00000000
