10
Lattice="16.28999089631971 0.0 0.0 0.0 16.28999089631971 0.0 0.0 0.0 34.31420841018396" Properties=species:S:1:pos:R:3:initial_magmoms:R:1 pbc="T T T"
Si       1.28528100       1.24823754       1.40849610       0.00000000
Si      -2.02142610      -0.73708992       0.91488594       0.00000000
Si      -0.77274873       1.35829278      -1.75277075       0.00000000
Si       1.46378682      -1.72247202      -0.67190689       0.00000000
Si       0.02985957       3.14137989       0.86567933       0.00000000
Si      -2.04436242      -2.45527767      -0.75515321       0.00000000
Si       2.06343801      -2.39630787       1.59681258       0.00000000
Si       0.14243976       0.33348888      -3.57883668       0.00000000
Si      -0.06475275      -3.16187271      -1.76625624       0.00000000
Si       3.30607179       1.66752585       0.36060822       0.00000000
