10
Lattice="16.28999089631971 0.0 0.0 0.0 16.28999089631971 0.0 0.0 0.0 34.31420841018396" Properties=species:S:1:pos:R:3:initial_magmoms:R:1 pbc="T T T"
Si      -1.36750382      -0.26156201       1.88693937       0.00000000
Si       1.26133470       1.94973055       0.32876461       0.00000000
Si      -1.53641483       0.90213694      -1.56304738       0.00000000
Si       0.89966412      -2.15213121      -0.50308089       0.00000000
Si       2.13216552       2.28181849      -1.86370864       0.00000000
Si      -2.03384627       1.98991798       2.37145627       0.00000000
Si      -2.96376092      -1.89253377       1.16688962       0.00000000
Si      -0.26709736       3.38121430       1.58054764       0.00000000
Si      -0.71017900      -3.25675611      -1.76220716       0.00000000
Si       0.11580072      -0.76301057       3.69420111       0.00000000
