10
Lattice="16.28999089631971 0.0 0.0 0.0 16.28999089631971 0.0 0.0 0.0 34.31420841018396" Properties=species:S:1:pos:R:3:initial_magmoms:R:1 pbc="T T T"
Si       2.13517917      -0.93713112      -0.20753245       0.00000000
Si      -0.30507912       0.93360012       2.13492830       0.00000000
Si      -0.28079073       1.58649680      -1.73537343       0.00000000
Si      -1.56450789      -1.79869293      -0.23927311       0.00000000
Si      -0.78462414      -2.34202959      -2.37752989       0.00000000
Si       1.76896368      -2.18095407      -2.05785854       0.00000000
Si       1.79414802       1.93156136       2.37742694       0.00000000
Si      -1.01848338      -3.19020102       1.57093965       0.00000000
Si       2.75959116      -1.74105891       1.84476719       0.00000000
Si       0.66630987      -2.36918502       2.95479814       0.00000000
