10
Lattice="16.28999089631971 0.0 0.0 0.0 16.28999089631971 0.0 0.0 0.0 34.31420841018396" Properties=species:S:1:pos:R:3:initial_magmoms:R:1 pbc="T T T"
Si       0.17397720      -0.48884661       2.28258242       0.00000000
Si       2.14731522       0.78525945      -0.56096899       0.00000000
Si      -0.62863110      -2.27193372      -0.33586766       0.00000000
Si      -0.22968900       2.38582267       0.25824888       0.00000000
Si       0.96617619       0.96646941      -2.60523910       0.00000000
Si      -0.11896587       3.00782537      -2.03363270       0.00000000
Si       3.42705762      -1.15004142      -0.38747626       0.00000000
Si       1.74175938       1.10420105       3.00112234       0.00000000
Si       1.61508834       2.94621659       1.56339052       0.00000000
Si      -3.54685428      -0.19477953      -1.10210436       0.00000000
