10
Lattice="16.28999089631971 0.0 0.0 0.0 16.28999089631971 0.0 0.0 0.0 34.31420841018396" Properties=species:S:1:pos:R:3:initial_magmoms:R:1 pbc="T T T"
Si      -0.69960663       0.64707138      -2.07198141       0.00000000
Si      -1.62655650      -1.11724151       1.25924522       0.00000000
Si       1.16440920       1.61249823       1.26149623       0.00000000
Si       0.95219937      -1.85681565      -1.29225921       0.00000000
Si      -1.97750826      -1.26743368      -2.66784797       0.00000000
Si      -1.10296332      -3.15164978      -1.40302554       0.00000000
Si      -0.21307320      -2.48448618       2.69375837       0.00000000
Si       2.51569728       0.24094539       2.69256080       0.00000000
Si       1.10960964       1.07976636      -3.49046295       0.00000000
Si       2.65153959      -2.80045367       0.01174105       0.00000000
