10
Lattice="16.28999089631971 0.0 0.0 0.0 16.28999089631971 0.0 0.0 0.0 34.31420841018396" Properties=species:S:1:pos:R:3:initial_magmoms:R:1 pbc="T T T"
Si      -1.35716877       1.35706288       1.35585807       0.00000000
Si      -1.35615879      -1.35762908      -1.35726496       0.00000000
Si       1.35868374       1.35716062      -1.35753947       0.00000000
Si       1.36114353      -1.35793344       1.36103952       0.00000000
Si      -2.69814528       0.01522789       2.72547615       0.00000000
Si      -2.71441899       2.71230944      -0.00030883       0.00000000
Si      -2.71321353      -0.00079332      -2.71459854       0.00000000
Si       2.71549413       2.71270040       0.00068628       0.00000000
Si      -2.71316466      -2.71609590      -0.00020589       0.00000000
Si       0.00105885       2.71475294      -2.71466717       0.00000000
