10
Lattice="16.28999089631971 0.0 0.0 0.0 16.28999089631971 0.0 0.0 0.0 34.31420841018396" Properties=species:S:1:pos:R:3:initial_magmoms:R:1 pbc="T T T"
Si       1.21808475       1.32262745      -1.51593395       0.00000000
Si      -0.06063138       0.35215070       2.37715243       0.00000000
Si      -1.55522259      -1.31540447      -1.44919277       0.00000000
Si      -2.01269466       1.71184442       2.14865399       0.00000000
Si       2.30120685       2.87022632      -0.18038989       0.00000000
Si       2.55985947      -0.00884058      -2.92134177       0.00000000
Si       3.51828162       1.14902492       1.38567714       0.00000000
Si      -0.16612542      -2.70632027      -2.90782196       0.00000000
Si      -0.16645122       2.72040719      -2.91396421       0.00000000
Si      -2.85983982       0.02808233      -2.93026346       0.00000000
