10
Lattice="16.28999089631971 0.0 0.0 0.0 16.28999089631971 0.0 0.0 0.0 34.31420841018396" Properties=species:S:1:pos:R:3:initial_magmoms:R:1 pbc="T T T"
Si       1.69934022      -0.94363802       1.30400026       0.00000000
Si      -2.05516269      -1.29483413      -0.11076633       0.00000000
Si      -0.95219937       1.85681565       1.29225921       0.00000000
Si       0.40452957      -0.58366190      -2.36630913       0.00000000
Si      -1.65180600       2.50388703      -0.77972219       0.00000000
Si      -2.92970763       0.58938197      -1.37558876       0.00000000
Si       0.19284102      -2.07204632       2.67746853       0.00000000
Si      -1.08020619      -3.22642088       1.07894226       0.00000000
Si       2.62513350      -2.50801559      -0.23021415       0.00000000
Si       0.15741027       2.93658201      -2.19820373       0.00000000
