10
Lattice="16.28999089631971 0.0 0.0 0.0 16.28999089631971 0.0 0.0 0.0 34.31420841018396" Properties=species:S:1:pos:R:3:initial_magmoms:R:1 pbc="T T T"
Si      -1.16440920      -1.61249823      -1.26149623       0.00000000
Si       0.74679876       1.89413604      -1.22766630       0.00000000
Si      -1.38787542       1.32698340       1.42728314       0.00000000
Si       1.35128808      -1.37155284       1.43106457       0.00000000
Si       2.66017329       2.68394040       0.04937474       0.00000000
Si      -2.77234623       2.69231346      -0.05080221       0.00000000
Si      -0.01612710       2.69200395       2.80157825       0.00000000
Si       2.68794774      -2.81664200       0.03436227       0.00000000
Si       2.70430290      -0.02726946       2.80610773       0.00000000
Si      -2.79096570      -2.72973973      -0.00225101       0.00000000
