10
Lattice="16.28999089631971 0.0 0.0 0.0 16.28999089631971 0.0 0.0 0.0 34.31420841018396" Properties=species:S:1:pos:R:3:initial_magmoms:R:1 pbc="T T T"
Si      -1.34201907      -1.35104373       1.37944224       0.00000000
Si       1.37174832       1.36502055       1.37429511       0.00000000
Si       1.38787542      -1.32698340      -1.42728314       0.00000000
Si      -1.38447081       1.36533006      -1.47808535       0.00000000
Si       2.13467418       0.56715264      -2.65494944       0.00000000
Si       0.44932707       2.47541211      -2.70743171       0.00000000
Si      -2.70814734      -2.69030979      -0.00805355       0.00000000
Si      -2.69097768       2.71959921       0.00931631       0.00000000
Si      -2.69737965       0.00583182       2.73924645       0.00000000
Si       2.73916350      -2.69853624       0.00378143       0.00000000
