10
Lattice="16.28999089631971 0.0 0.0 0.0 16.28999089631971 0.0 0.0 0.0 34.31420841018396" Properties=species:S:1:pos:R:3:initial_magmoms:R:1 pbc="T T T"
Si      -1.35568638       1.35643572      -1.36100521       0.00000000
Si       1.35834165      -1.35951453      -1.36042187       0.00000000
Si      -1.36190916      -1.36466217       1.38066726       0.00000000
Si       1.36446669       1.36868580       1.37761329       0.00000000
Si       2.68123626      -0.07920198       2.74201561       0.00000000
Si       2.71318095       2.71379997      -0.00476968       0.00000000
Si      -2.71441899       2.71482624       0.00353437       0.00000000
Si      -2.71432125      -2.71515204      -0.00525008       0.00000000
Si      -2.71327869      -0.00021177      -2.71778977       0.00000000
Si       2.71880100      -2.71309950      -0.00150983       0.00000000
