10
Lattice="16.28999089631971 0.0 0.0 0.0 16.28999089631971 0.0 0.0 0.0 34.31420841018396" Properties=species:S:1:pos:R:3:initial_magmoms:R:1 pbc="T T T"
Si      -1.39286016       1.90469196       0.12826658       0.00000000
Si       0.34311627       0.17930403      -2.39348600       0.00000000
Si       0.00635310      -2.16888318       1.19073801       0.00000000
Si       1.85943834       0.09044208       1.75047169       0.00000000
Si       0.48620763       0.50295375       3.63411690       0.00000000
Si      -2.23704054      -2.94207174      -0.21432667       0.00000000
Si      -3.05859411       1.22593653       1.68819137       0.00000000
Si      -0.78677442      -1.45738485       3.32930362       0.00000000
Si       2.07686097      -1.78368984      -2.54337055       0.00000000
Si      -0.28233828       3.50192646       1.44061422       0.00000000
