10
Lattice="16.28999089631971 0.0 0.0 0.0 16.28999089631971 0.0 0.0 0.0 34.31420841018396" Properties=species:S:1:pos:R:3:initial_magmoms:R:1 pbc="T T T"
Si       2.02826790      -1.25432674       0.49525725       0.00000000
Si       0.92675439       1.43236341      -1.86827244       0.00000000
Si      -1.68822067      -1.31703021      -1.42881012       0.00000000
Si       0.18060723       1.12759380       2.31415151       0.00000000
Si      -2.00001680      -3.09175145       0.20475300       0.00000000
Si       2.09448675      -2.86924634      -1.38917719       0.00000000
Si      -2.36811707      -1.82398641       2.37708380       0.00000000
Si      -0.65610907      -0.70311550       3.71860680       0.00000000
Si       0.91826730       0.09853821      -3.82390889       0.00000000
Si      -0.25720281       3.48933429      -1.98205841       0.00000000
