10
Lattice="16.28999089631971 0.0 0.0 0.0 16.28999089631971 0.0 0.0 0.0 34.31420841018396" Properties=species:S:1:pos:R:3:initial_magmoms:R:1 pbc="T T T"
Si       1.36054080       1.34954505       1.39815379       0.00000000
Si      -1.35402480      -1.36669842       1.39684985       0.00000000
Si       1.49408622      -1.25250552      -1.48748059       0.00000000
Si      -1.41182172       1.38794058      -1.51760162       0.00000000
Si       2.72401380       2.68985367       0.04798845       0.00000000
Si      -2.71013472       2.70464499       0.02215670       0.00000000
Si       2.72108160      -2.69687466       0.02742393       0.00000000
Si      -2.70601335      -2.72303640       0.02857689       0.00000000
Si       0.00159642       2.70782154       2.75819820       0.00000000
Si      -2.71526607      -0.00666261       2.75812957       0.00000000
