10
Lattice="16.28999089631971 0.0 0.0 0.0 16.28999089631971 0.0 0.0 0.0 34.31420841018396" Properties=species:S:1:pos:R:3:initial_magmoms:R:1 pbc="T T T"
Si       2.24929062       0.05916528       0.56230725       0.00000000
Si      -0.72702270      -1.22131017      -1.86720869       0.00000000
Si      -0.53380701       2.09992761      -0.91824873       0.00000000
Si      -1.51461162      -0.63338778       1.83996320       0.00000000
Si      -2.83595868       1.42257312      -1.06696659       0.00000000
Si      -2.98682037      -0.96327657      -1.37431913       0.00000000
Si       1.87724331       0.95397498       2.88311572       0.00000000
Si       0.30454155       3.56926932       0.70749074       0.00000000
Si      -3.04315119      -2.07278847       0.74561385       0.00000000
Si       3.10738266      -2.11771629      -0.19023808       0.00000000
