10
Lattice="16.28999089631971 0.0 0.0 0.0 16.28999089631971 0.0 0.0 0.0 34.31420841018396" Properties=species:S:1:pos:R:3:initial_magmoms:R:1 pbc="T T T"
Si      -1.50649920      -1.12840830       1.37346827       0.00000000
Si      -1.69934022       0.94363802      -1.30400026       0.00000000
Si       1.20081735       1.59630990       1.28411746       0.00000000
Si       0.92579328      -1.56437757      -1.53421441       0.00000000
Si      -2.77954641      -2.28278286      -0.22505800       0.00000000
Si      -0.13595634      -2.41756632       2.70576620       0.00000000
Si      -0.96443316      -3.12551343      -1.58506810       0.00000000
Si       2.72561022      -2.48894910      -0.08756089       0.00000000
Si       2.56997556       0.30387739       2.69721509       0.00000000
Si       3.09580047       2.26413800       0.00872010       0.00000000
