10
Lattice="16.28999089631971 0.0 0.0 0.0 16.28999089631971 0.0 0.0 0.0 34.31420841018396" Properties=species:S:1:pos:R:3:initial_magmoms:R:1 pbc="T T T"
Si       1.35747828       1.35762489      -1.35826007       0.00000000
Si      -1.35814617      -1.35708732      -1.35822576       0.00000000
Si      -1.35798327       1.35870003       1.35949538       0.00000000
Si       1.36156707      -1.36247931       1.35527473       0.00000000
Si      -2.68343541      -0.02204037       2.71895645       0.00000000
Si       2.71389771      -2.71332756      -0.00209317       0.00000000
Si       2.70510111      -0.01068624       2.72300553       0.00000000
Si      -2.71505430       2.71479366      -0.00154414       0.00000000
Si      -0.00027693      -2.71445157      -2.71542209       0.00000000
Si       2.71428867       0.00050499      -2.71579954       0.00000000
