10
Lattice="16.28999089631971 0.0 0.0 0.0 16.28999089631971 0.0 0.0 0.0 34.31420841018396" Properties=species:S:1:pos:R:3:initial_magmoms:R:1 pbc="T T T"
Si       0.58889979      -0.74407833       2.12230066       0.00000000
Si      -0.88576875      -1.78284276      -1.22591009       0.00000000
Si       1.95976845       1.05788889      -0.89114049       0.00000000
Si      -2.00741670       1.32004386       0.30299463       0.00000000
Si      -1.35086454      -0.24320970       3.31911229       0.00000000
Si      -2.73919608      -2.41456896       0.19840486       0.00000000
Si       1.41468876       3.38974279      -0.84677219       0.00000000
Si      -1.48118454      -0.93814110      -3.37868179       0.00000000
Si      -2.63182869       2.12397165      -1.74930501       0.00000000
Si       0.73982664      -3.54832038      -1.22364536       0.00000000
