10
Lattice="16.28999089631971 0.0 0.0 0.0 16.28999089631971 0.0 0.0 0.0 34.31420841018396" Properties=species:S:1:pos:R:3:initial_magmoms:R:1 pbc="T T T"
Si      -0.54507969       2.33185390       0.04436830       0.00000000
Si      -1.95976845      -1.05788889       0.89114049       0.00000000
Si       2.19097242      -0.02111184       1.01422562       0.00000000
Si       0.43085421      -0.77748912      -2.44770248       0.00000000
Si      -1.37086866      -1.80196722       3.01344115       0.00000000
Si       2.73008997       2.23976213       1.35836301       0.00000000
Si       1.55650950       3.43979870      -0.34949041       0.00000000
Si      -1.13810085       2.87465787       2.32986742       0.00000000
Si      -2.84553720      -2.84073165      -0.33476960       0.00000000
Si       1.56281373      -2.93953050      -2.33559790       0.00000000
