10
Lattice="16.28999089631971 0.0 0.0 0.0 16.28999089631971 0.0 0.0 0.0 34.31420841018396" Properties=species:S:1:pos:R:3:initial_magmoms:R:1 pbc="T T T"
Si       0.83834856       1.46934171       1.62573947       0.00000000
Si       0.53380701      -2.09992761       0.91824873       0.00000000
Si       0.48866742       0.91883745      -2.15150207       0.00000000
Si      -2.30215167      -0.67735449      -0.14871786       0.00000000
Si      -0.19321569      -3.32123778      -0.94895996       0.00000000
Si      -1.10201850      -0.30543750      -3.33650961       0.00000000
Si      -3.21734016       0.34744941       1.67734807       0.00000000
Si      -3.04178283       0.19543113      -2.13969798       0.00000000
Si      -0.44139384       3.40464258       1.45224674       0.00000000
Si       2.78309763      -2.04076233       1.48055598       0.00000000
