10
Lattice="16.28999089631971 0.0 0.0 0.0 16.28999089631971 0.0 0.0 0.0 34.31420841018396" Properties=species:S:1:pos:R:3:initial_magmoms:R:1 pbc="T T T"
Si       1.73359809      -0.30185370      -1.53120378       0.00000000
Si      -1.66679280      -1.03115700      -1.27113625       0.00000000
Si       1.18113903      -0.18120996       2.04427011       0.00000000
Si      -1.08514206       2.04135596       0.57160640       0.00000000
Si      -0.96617619      -0.96646941       2.60523910       0.00000000
Si      -1.19586519       1.41935326       2.86348798       0.00000000
Si       0.54907074       3.50379071      -0.25907242       0.00000000
Si       0.75328218       0.78533505      -3.42805996       0.00000000
Si       3.46905324       0.94532077      -0.52095860       0.00000000
Si      -1.50148188       0.12023097      -3.36752967       0.00000000
