10
Lattice="16.28999089631971 0.0 0.0 0.0 16.28999089631971 0.0 0.0 0.0 34.31420841018396" Properties=species:S:1:pos:R:3:initial_magmoms:R:1 pbc="T T T"
Si       1.35679675       1.35745222      -1.35709339       0.00000000
Si      -1.35791811      -1.35745358      -1.35716202       0.00000000
Si       1.35787805      -1.36010164       1.35602965       0.00000000
Si      -1.35617508       1.35973282       1.35983853       0.00000000
Si       0.00014661       2.69455171       2.72801541       0.00000000
Si       2.70616715       0.00339158       2.71936822       0.00000000
Si       0.00019548       2.71431148      -2.71415246       0.00000000
Si      -0.00097740      -2.71453369      -2.71394657       0.00000000
Si       2.71408734      -0.00005539      -2.71456423       0.00000000
Si       2.71344878       2.71553323       0.00072060       0.00000000
