10
Lattice="16.28999089631971 0.0 0.0 0.0 16.28999089631971 0.0 0.0 0.0 34.31420841018396" Properties=species:S:1:pos:R:3:initial_magmoms:R:1 pbc="T T T"
Si      -0.17586684      -0.38709927       2.31415151       0.00000000
Si       2.44177326      -0.05093883      -0.30495054       0.00000000
Si       0.05722677      -2.37959922      -0.67046569       0.00000000
Si      -0.57744792       2.45289933      -0.34362268       0.00000000
Si      -2.43053316       0.19357407      -0.90335636       0.00000000
Si       0.85704948      -1.14243399      -3.07139788       0.00000000
Si      -3.22366068       0.90507240       1.23520925       0.00000000
Si      -1.95067863       2.86541100       1.54002253       0.00000000
Si      -2.46990609      -0.68186682       2.81393823       0.00000000
Si       1.15346232      -2.16763862       2.95569031       0.00000000
