10
Lattice="16.28999089631971 0.0 0.0 0.0 16.28999089631971 0.0 0.0 0.0 34.31420841018396" Properties=species:S:1:pos:R:3:initial_magmoms:R:1 pbc="T T T"
Si      -1.35510713       1.35930276       1.35692182       0.00000000
Si      -1.35665203      -1.35808101      -1.35781399       0.00000000
Si       1.35865116       1.35708732      -1.35784830       0.00000000
Si       1.36029645      -1.35830907       1.36049050       0.00000000
Si       0.00652089       2.69040753       2.70965730       0.00000000
Si      -2.71325330      -0.00122175      -2.71487306       0.00000000
Si      -2.71442618       2.71384884      -0.00061766       0.00000000
Si       0.00111261       2.71402803      -2.71477012       0.00000000
Si      -2.71344878      -2.71553323      -0.00072060       0.00000000
Si       2.71490769       2.71443528      -0.00116668       0.00000000
