10
Lattice="16.28999089631971 0.0 0.0 0.0 16.28999089631971 0.0 0.0 0.0 34.31420841018396" Properties=species:S:1:pos:R:3:initial_magmoms:R:1 pbc="T T T"
Si       1.57929921       1.12686075       1.32325956       0.00000000
Si       1.39388643      -1.29907863      -1.37534856       0.00000000
Si      -1.57548735      -1.13564106       1.37222596       0.00000000
Si      -1.31676957       1.44788778      -1.36440232       0.00000000
Si      -3.30923205       0.82735281       1.52211051       0.00000000
Si      -2.65860945      -2.68323993       0.03668191       0.00000000
Si      -2.57927715       2.78068671       0.22235619       0.00000000
Si       0.03756474      -2.63389752      -2.74352544       0.00000000
Si      -2.68123626       0.07920198      -2.74201561       0.00000000
Si       2.56336182      -2.86661646       0.02604450       0.00000000
