10
Lattice="16.28999089631971 0.0 0.0 0.0 16.28999089631971 0.0 0.0 0.0 34.31420841018396" Properties=species:S:1:pos:R:3:initial_magmoms:R:1 pbc="T T T"
Si       0.88084007       1.56322098       1.55436588       0.00000000
Si      -2.26875717      -0.06973749       0.69798570       0.00000000
Si       0.20295711       0.63671094      -2.29716597       0.00000000
Si       0.01943397      -2.38892850       0.25186643       0.00000000
Si       0.61038630      -2.84785038      -1.93844503       0.00000000
Si      -0.83393397      -1.29787317      -3.20910088       0.00000000
Si       1.28875144       0.09014886       3.39546145       0.00000000
Si      -0.71192187       2.83182102      -2.26727827       0.00000000
Si       2.81718350      -1.34133489       2.14367843       0.00000000
Si      -0.68219262       3.40734672       1.58830265       0.00000000
