10
Lattice="16.28999089631971 0.0 0.0 0.0 16.28999089631971 0.0 0.0 0.0 34.31420841018396" Properties=species:S:1:pos:R:3:initial_magmoms:R:1 pbc="T T T"
Si      -0.98430696      -1.68551001      -1.35863753       0.00000000
Si       1.26768780      -1.39818699       1.55326783       0.00000000
Si       1.76091642       1.11073365      -1.35795124       0.00000000
Si      -1.90032624       2.03766723       0.39389302       0.00000000
Si       1.18576539       0.41951637       3.13577137       0.00000000
Si      -2.20248456      -0.17259255      -2.74949611       0.00000000
Si       0.35732115       2.61560385       2.40494695       0.00000000
Si       0.49560696       2.56707594      -2.72808404       0.00000000
Si      -2.27498484      -3.12000741       0.04882915       0.00000000
Si      -3.55738576       1.12454757      -1.33787742       0.00000000
