10
Lattice="16.28999089631971 0.0 0.0 0.0 16.28999089631971 0.0 0.0 0.0 34.31420841018396" Properties=species:S:1:pos:R:3:initial_magmoms:R:1 pbc="T T T"
Si       1.45717308      -1.21127553       1.37891724       0.00000000
Si       1.91105388       0.75183237      -1.17549803       0.00000000
Si      -1.25061588       1.52438562       1.37210929       0.00000000
Si       1.03635351       0.37199844      -3.26273886       0.00000000
Si      -1.29244860      -2.54674602      -2.30420523       0.00000000
Si      -2.64091851      -2.56103235      -0.00726089       0.00000000
Si       0.11860749      -2.55384846       2.75094761       0.00000000
Si      -2.59906950       0.15890895       2.75245743       0.00000000
Si       2.76322124      -2.63342511      -0.05004730       0.00000000
Si      -2.64429054       2.85669585      -0.10682705       0.00000000
