10
Lattice="16.28999089631971 0.0 0.0 0.0 16.28999089631971 0.0 0.0 0.0 34.31420841018396" Properties=species:S:1:pos:R:3:initial_magmoms:R:1 pbc="T T T"
Si      -1.35529542       1.35632169      -1.35771104       0.00000000
Si      -1.35648459      -1.35689184       1.35654436       0.00000000
Si       1.35873261       1.35716877       1.35613259       0.00000000
Si       1.36238157      -1.35643572      -1.35922087       0.00000000
Si      -2.71336014       2.71358820      -0.00051471       0.00000000
Si      -2.71305063      -2.71472850      -0.00171571       0.00000000
Si      -2.71353933       0.00016290       2.71435834       0.00000000
Si       0.00105885       2.71485882       2.71356912       0.00000000
Si       0.00091224      -2.71463076       2.71401520       0.00000000
Si       2.71462783      -2.71495656      -0.00030883       0.00000000
