10
Lattice="16.28999089631971 0.0 0.0 0.0 16.28999089631971 0.0 0.0 0.0 34.31420841018396" Properties=species:S:1:pos:R:3:initial_magmoms:R:1 pbc="T T T"
Si       1.35544203       1.35454608       1.35839733       0.00000000
Si      -1.35811359      -1.35588186       1.35688750       0.00000000
Si      -1.35772263       1.35795069      -1.35681887       0.00000000
Si       1.35767376      -1.35769005      -1.35743653       0.00000000
Si      -2.71044423      -0.00503361       2.71425540       0.00000000
Si      -0.00105885      -2.71485882      -2.71356912       0.00000000
Si      -2.71441899      -0.00127062      -2.71408383       0.00000000
Si      -0.00206883       2.71503801      -2.71387795       0.00000000
Si      -2.71459818      -2.71469592       0.00078923       0.00000000
Si      -2.71453302       2.71507059       0.00072060       0.00000000
