10
Lattice="16.28999089631971 0.0 0.0 0.0 16.28999089631971 0.0 0.0 0.0 34.31420841018396" Properties=species:S:1:pos:R:3:initial_magmoms:R:1 pbc="T T T"
Si      -0.43274385      -1.33392294       1.87331663       0.00000000
Si       2.32039647       0.50112927       0.09885929       0.00000000
Si       0.14846706      -1.57322304      -1.80667840       0.00000000
Si      -1.13195952       2.16204138      -0.11210458       0.00000000
Si       2.16173187       1.57830552      -2.03785335       0.00000000
Si      -2.98341576       1.08897021      -1.48062461       0.00000000
Si       1.27467621      -0.21835116      -3.35123041       0.00000000
Si       2.25183186      -2.53097730      -1.41944234       0.00000000
Si       0.21996387       3.00374568      -2.12017318       0.00000000
Si       2.48785767       2.00629269       1.95879337       0.00000000
