10
Lattice="16.28999089631971 0.0 0.0 0.0 16.28999089631971 0.0 0.0 0.0 34.31420841018396" Properties=species:S:1:pos:R:3:initial_magmoms:R:1 pbc="T T T"
Si       1.12620915       1.35487188      -1.54455201       0.00000000
Si       2.10336480      -0.95775426       0.38723606       0.00000000
Si      -0.14846706       1.57322304       1.80667840       0.00000000
Si      -1.57581315      -1.46274426      -1.32408310       0.00000000
Si       2.17192941       2.07435231       1.90553769       0.00000000
Si      -0.58121091       0.23930010       3.67999502       0.00000000
Si       2.01326481       3.15152856      -0.23117495       0.00000000
Si       2.41044759      -0.09322767      -2.92213099       0.00000000
Si       0.67375440      -1.78463466       3.44123663       0.00000000
Si      -0.32793399       2.61197118      -2.92521927       0.00000000
