10
Lattice="16.28999089631971 0.0 0.0 0.0 16.28999089631971 0.0 0.0 0.0 34.31420841018396" Properties=species:S:1:pos:R:3:initial_magmoms:R:1 pbc="T T T"
Si       1.35490120      -1.29714012      -1.41161869       0.00000000
Si      -1.17950907      -1.58258979       1.30462693       0.00000000
Si      -1.35182469       1.44075276      -1.39432432       0.00000000
Si       1.65705952       0.91311966       1.73177044       0.00000000
Si      -1.65890748       0.57622617       1.91504273       0.00000000
Si       2.53924447       2.56868865       0.11608503       0.00000000
Si      -0.13737261       1.47701430       3.43207473       0.00000000
Si       2.57307880      -2.81005758      -0.02076011       0.00000000
Si      -0.00672681      -2.62824489      -2.76435417       0.00000000
Si      -2.75880828      -2.70945054      -0.01863263       0.00000000
