10
Lattice="16.28999089631971 0.0 0.0 0.0 16.28999089631971 0.0 0.0 0.0 34.31420841018396" Properties=species:S:1:pos:R:3:initial_magmoms:R:1 pbc="T T T"
Si       1.35565380       1.35708732      -1.35705907       0.00000000
Si      -1.35681039       1.35711990       1.35753947       0.00000000
Si       1.35772263      -1.35795069       1.35681887       0.00000000
Si      -1.35669636      -1.35922131      -1.35726496       0.00000000
Si      -0.00039096      -2.71383255       2.71370637       0.00000000
Si       2.71316466      -0.00340461       2.71521620       0.00000000
Si       0.00337203       2.71414206      -2.71483874       0.00000000
Si      -2.71456560      -2.71495656       0.00037746       0.00000000
Si      -2.71428867      -0.00050499       2.71579954       0.00000000
Si      -2.71497285       2.71521720      -0.00037746       0.00000000
