10
Lattice="16.28999089631971 0.0 0.0 0.0 16.28999089631971 0.0 0.0 0.0 34.31420841018396" Properties=species:S:1:pos:R:3:initial_magmoms:R:1 pbc="T T T"
Si      -0.78592734       2.13197004       0.67883836       0.00000000
Si      -1.72403912      -1.32512634      -0.99168118       0.00000000
Si       1.52798571       0.34412625      -1.82088449       0.00000000
Si       0.44944110      -0.89423955       2.19696842       0.00000000
Si       0.69954147       2.54021373      -2.55170891       0.00000000
Si       3.60507474       0.21369222      -0.70937803       0.00000000
Si       0.61937838       3.72887874      -0.36369650       0.00000000
Si      -2.99217652       2.40468093      -0.21394921       0.00000000
Si      -1.00996371      -3.52634517      -1.31591631       0.00000000
Si      -0.58795497       2.41096887       3.00760773       0.00000000
