10
Lattice="16.28999089631971 0.0 0.0 0.0 16.28999089631971 0.0 0.0 0.0 34.31420841018396" Properties=species:S:1:pos:R:3:initial_magmoms:R:1 pbc="T T T"
Si      -0.87470037      -0.37983393      -2.08724083       0.00000000
Si      -1.91105388      -0.75183237       1.17549803       0.00000000
Si       0.95745941       1.98667953       1.10080625       0.00000000
Si       2.00754539      -1.62219078      -0.15634493       0.00000000
Si      -0.45388080      -1.96310790       2.55441527       0.00000000
Si       2.28613697       0.76072671       2.57608127       0.00000000
Si       0.85216737      -3.38525748       1.12545073       0.00000000
Si       2.65836347       2.70619254      -0.44304030       0.00000000
Si      -0.14435709       1.19210220      -3.63937628       0.00000000
Si       3.69111689      -0.51098472       1.18049762       0.00000000
