10
Lattice="16.28999089631971 0.0 0.0 0.0 16.28999089631971 0.0 0.0 0.0 34.31420841018396" Properties=species:S:1:pos:R:3:initial_magmoms:R:1 pbc="T T T"
Si       1.35649958       1.35682668       1.35781399       0.00000000
Si      -1.35759754       1.35698958      -1.35812281       0.00000000
Si       1.35751771      -1.35803214      -1.35733359       0.00000000
Si      -1.35802108      -1.35821133       1.35681887       0.00000000
Si       0.00129797      -2.71275741       2.71435834       0.00000000
Si       2.71523545      -0.00024435      -2.71401520       0.00000000
Si      -0.00170231      -2.71513575      -2.71456423       0.00000000
Si       2.71518658       2.71451673      -0.00010294       0.00000000
Si      -2.71527130       2.71467963      -0.00068628       0.00000000
Si      -0.00018442       2.71412577      -2.71583386       0.00000000
