10
Lattice="16.28999089631971 0.0 0.0 0.0 16.28999089631971 0.0 0.0 0.0 34.31420841018396" Properties=species:S:1:pos:R:3:initial_magmoms:R:1 pbc="T T T"
Si       0.04960305       1.91114280      -1.33338226       0.00000000
Si       2.00793798      -0.02577078       1.19938520       0.00000000
Si      -1.10811096       0.59401485       1.97625931       0.00000000
Si      -0.82197711      -1.98884610      -1.00235290       0.00000000
Si       0.06770124       2.71033020       2.02248057       0.00000000
Si       1.50438150      -1.82283471       2.54529215       0.00000000
Si       0.67336344       0.94449420      -3.39515262       0.00000000
Si       0.98284086       3.61378989      -0.00473536       0.00000000
Si      -2.59766367      -2.70018153       0.44577613       0.00000000
Si      -0.77475240      -1.66008132       3.35929425       0.00000000
