10
Lattice="16.28999089631971 0.0 0.0 0.0 16.28999089631971 0.0 0.0 0.0 34.31420841018396" Properties=species:S:1:pos:R:3:initial_magmoms:R:1 pbc="T T T"
Si       1.68645483      -0.68452209      -1.58765068       0.00000000
Si       1.68357150       1.11120606       1.33684254       0.00000000
Si      -1.15537802      -1.76306670       1.28179566       0.00000000
Si      -2.00754539       1.62219078       0.15634493       0.00000000
Si       0.27859158       2.38291749       2.73242620       0.00000000
Si      -2.46142619      -0.34091712       2.71076019       0.00000000
Si      -2.88224576       1.24235685      -1.93089590       0.00000000
Si       2.62374885       2.69232975      -0.25241546       0.00000000
Si       2.80960146      -2.56124412      -0.44169274       0.00000000
Si      -1.05008598       3.60887031       1.25715118       0.00000000
