10
Lattice="16.28999089631971 0.0 0.0 0.0 16.28999089631971 0.0 0.0 0.0 34.31420841018396" Properties=species:S:1:pos:R:3:initial_magmoms:R:1 pbc="T T T"
Si      -1.39887200       1.28660049      -1.40674607       0.00000000
Si      -1.78303907      -0.90907974       1.28822473       0.00000000
Si       1.31022734      -1.45384992      -1.38571145       0.00000000
Si       1.42291342       1.31709537       1.45862919       0.00000000
Si      -2.88264665       2.44235970       0.04725069       0.00000000
Si       2.67128942       2.68855733      -0.01454923       0.00000000
Si      -2.67009473      -2.70573642      -0.02515233       0.00000000
Si      -0.04122202       2.63221965      -2.77437393       0.00000000
Si       2.67467774      -0.07965810      -2.77306999       0.00000000
Si      -2.75698559      -0.07969068      -2.76967288       0.00000000
