10
Lattice="10.86 0.0 0.0 0.0 10.86 0.0 0.0 0.0 10.86" Properties=species:S:1:pos:R:3:initial_magmoms:R:1 pbc="T T T"
Si      -1.51862982       1.28213160       1.15660086       0.00000000
Si       1.21334436       1.28791998      -1.49965740       0.00000000
Si      -1.44733392      -1.35376416      -1.42853526       0.00000000
Si       1.64382390       0.10008576       1.83280962       0.00000000
Si       2.53459368       2.71241532      -0.13310016       0.00000000
Si      -0.18040632       2.71241532       2.58189984       0.00000000
Si       2.53459368      -0.00258468      -2.84810016       0.00000000
Si      -2.89540632      -0.00258468       2.58189984       0.00000000
Si      -0.18040632       2.71241532      -2.84810016       0.00000000
Si      -0.18040632      -2.71758468      -2.84810016       0.00000000
