10
Lattice="10.86 0.0 0.0 0.0 10.86 0.0 0.0 0.0 10.86" Properties=species:S:1:pos:R:3:initial_magmoms:R:1 pbc="T T T"
Si       1.51862982      -1.28213160      -1.15660086       0.00000000
Si      -1.37677650      -1.28471628       1.42529898       0.00000000
Si      -1.37677650       1.43028372      -1.28970102       0.00000000
Si       1.33822350       1.43028372       1.42529898       0.00000000
Si       3.16245372      -1.18204584       0.67620876       0.00000000
Si       0.07129590      -2.63589576      -2.58513612       0.00000000
Si      -2.73427650      -2.64221628       0.06779898       0.00000000
Si      -2.73427650       0.07278372      -2.64720102       0.00000000
Si       2.73197418       0.00578838      -2.65625826       0.00000000
Si      -0.01927650       2.78778372      -2.64720102       0.00000000
