10
Lattice="16.290000149 0.0 0.0 0.0 16.290000149 0.0 0.0 0.0 29.1751946751" Properties=species:S:1:pos:R:3:initial_magmoms:R:1 pbc="T T T"
Si      -1.33519357      -1.36428751       1.36761643       0.00000000
Si       1.35003376      -1.35419260      -1.36930859       0.00000000
Si       1.35964486       1.34659657       1.36849168       0.00000000
Si      -1.36930483       1.34351776      -1.36431963       0.00000000
Si       2.71360451       2.68956047      -0.00989039       0.00000000
Si      -2.69687468      -2.70767495      -0.00904431       0.00000000
Si      -0.00456120       2.73919611       2.68216317       0.00000000
Si       2.72336222      -2.70339068      -0.03086736       0.00000000
Si      -2.75840202      -0.00164529       2.66815908       0.00000000
Si      -0.01972719       2.70858719      -2.72073278       0.00000000
