10
Lattice="16.290000149 0.0 0.0 0.0 16.290000149 0.0 0.0 0.0 29.1751946751" Properties=species:S:1:pos:R:3:initial_magmoms:R:1 pbc="T T T"
Si       1.61253082      -0.17270658      -1.67917833       0.00000000
Si      -0.43541541       2.28962957      -0.30234254       0.00000000
Si       0.24896007      -0.51385176       2.29853008       0.00000000
Si      -1.89770357      -1.30121263      -0.63155544       0.00000000
H        1.32673906      -2.22904217       1.50841592       0.00000000
H       -2.78176188      -0.45110268      -1.52093207       0.00000000
Si      -1.49711617       1.02848545       2.74991964       0.00000000
Si       0.04965192      -0.95149891      -3.27112283       0.00000000
Si      -2.33103386       2.27280688       1.03641962       0.00000000
Si      -0.86716558      -2.78743080      -2.10391081       0.00000000
