10
Lattice="16.290000149 0.0 0.0 0.0 16.290000149 0.0 0.0 0.0 29.1751946751" Properties=species:S:1:pos:R:3:initial_magmoms:R:1 pbc="T T T"
Si       1.22005585      -1.53375238       1.24096691       0.00000000
Si      -1.38653965      -1.34762284      -1.29745008       0.00000000
Si      -1.06702759       1.46507374       1.47320146       0.00000000
Si       1.38057751       1.31761666      -1.36011840       0.00000000
Si       0.72497017       2.21309426       2.88151728       0.00000000
Si      -2.37961064       0.10981089       2.85989846       0.00000000
Si      -0.01819593       2.60240897      -2.71148424       0.00000000
Si      -0.02450016      -2.69197139      -2.63311967       0.00000000
Si      -2.74207944       0.00899208      -2.60111448       0.00000000
Si      -2.51084288       2.82103707       0.19270216       0.00000000
