10
Lattice="16.290000149 0.0 0.0 0.0 16.290000149 0.0 0.0 0.0 29.1751946751" Properties=species:S:1:pos:R:3:initial_magmoms:R:1 pbc="T T T"
Si       1.06878691      -1.46334700      -1.46450725       0.00000000
Si      -1.54232092       1.31044906      -1.20149287       0.00000000
Si      -1.10576521      -1.72529021       1.17398066       0.00000000
Si       2.13014558       0.95972536       0.67175886       0.00000000
Si       0.21605427       0.79464250       3.37376116       0.00000000
Si      -0.19800495       2.68692149      -2.51361807       0.00000000
Si       2.47811627      -2.72877050      -0.07556375       0.00000000
Si       2.48789027      -0.13877451      -2.72510906       0.00000000
H        3.29864358      -1.62764794       0.51637177       0.00000000
Si       0.46380888      -3.52082289       1.08946012       0.00000000
