10
Lattice="16.290000149 0.0 0.0 0.0 16.290000149 0.0 0.0 0.0 29.1751946751" Properties=species:S:1:pos:R:3:initial_magmoms:R:1 pbc="T T T"
Si      -1.36708939      -1.35931906      -1.32965950       0.00000000
Si      -1.43773912       1.33437907       1.28300836       0.00000000
Si       1.35350353       1.35177679      -1.36227736       0.00000000
Si       1.36765954      -1.32035338       1.38284588       0.00000000
Si      -0.08643474       2.67247226       2.60239819       0.00000000
Si      -0.09273897      -2.62190810       2.68076276       0.00000000
Si       0.00291591      -2.71603172      -2.66363692       0.00000000
Si      -2.71033022       0.02292003      -2.67431504       0.00000000
Si       2.73090449      -0.01554066      -2.67519030       0.00000000
Si       2.72893340       2.69384474      -0.02800819       0.00000000
