10
Lattice="16.290000149 0.0 0.0 0.0 16.290000149 0.0 0.0 0.0 29.1751946751" Properties=species:S:1:pos:R:3:initial_magmoms:R:1 pbc="T T T"
Si       1.12213666      -0.06773382      -1.01141647       0.00000000
H        0.68509225       0.92442493       1.60545261       0.00000000
H       -0.91774603       1.76705777       0.43724864       0.00000000
Si      -2.27382338       1.18974016       0.16128048       0.00000000
Si      -2.72574057      -1.01902096       0.77083782       0.00000000
Si       0.14946075       0.66407815       2.99066168       0.00000000
Si       1.33581259      -2.20841903      -1.90665732       0.00000000
Si       3.18984267       0.62594326      -0.12877931       0.00000000
Si       0.89990848       1.46158768      -2.83632490       0.00000000
Si      -1.64889011      -0.93229300       2.87083916       0.00000000
