10
Lattice="16.290000149 0.0 0.0 0.0 16.290000149 0.0 0.0 0.0 29.1751946751" Properties=species:S:1:pos:R:3:initial_magmoms:R:1 pbc="T T T"
Si       1.03356793       1.10464120      -0.20941955       0.00000000
H       -0.52085646       1.52793685       1.81825648       0.00000000
Si      -2.22892814      -0.78855004      -1.13669476       0.00000000
Si      -0.98073946       0.24285132       2.47469836       0.00000000
Si       1.03159684      -1.12168054       2.40035997       0.00000000
Si      -0.54758836      -2.46881468      -1.37310136       0.00000000
Si      -0.18992511      -2.71015103       0.98769704       0.00000000
Si       2.19391279       0.93537181       1.81037918       0.00000000
Si       2.51099438       0.02300148      -1.63973347       0.00000000
Si      -0.23105736       2.73947304      -1.37164260       0.00000000
