10
Lattice="16.290000149 0.0 0.0 0.0 16.290000149 0.0 0.0 0.0 29.1751946751" Properties=species:S:1:pos:R:3:initial_magmoms:R:1 pbc="T T T"
Si       1.31206177       1.35974260       1.34578754       0.00000000
Si      -1.37469682       1.26451126      -1.41774233       0.00000000
Si       1.28739871      -1.44873487      -1.32860627       0.00000000
Si      -1.42723207      -1.39067731       1.28177717       0.00000000
Si      -2.18483111      -0.59505742      -2.59828186       0.00000000
Si      -0.55170973      -2.33044742      -2.51452250       0.00000000
Si       2.62089812       2.64942191      -0.12495152       0.00000000
Si       2.62891280      -0.03197727       2.68778815       0.00000000
Si      -0.10682982       2.69071706       2.64773061       0.00000000
Si       2.53659737      -2.81921259       0.08501360       0.00000000
