10
Lattice="16.290000149 0.0 0.0 0.0 16.290000149 0.0 0.0 0.0 29.1751946751" Properties=species:S:1:pos:R:3:initial_magmoms:R:1 pbc="T T T"
Si      -1.37194381      -1.40634829      -1.31234694       0.00000000
Si      -1.34641738       1.27933516       1.46056860       0.00000000
Si       1.33957558      -1.33643161       1.42196981       0.00000000
Si       1.34153038       1.41814225      -1.36019717       0.00000000
Si       2.67208130      -0.02204037      -2.67443466       0.00000000
Si       0.05963769      -2.77801518      -2.59702995       0.00000000
Si      -2.68078016      -2.69602760       0.15839213       0.00000000
Si      -2.77962789       2.59903694       0.17767694       0.00000000
Si      -2.72078840      -0.04401558      -2.68905435       0.00000000
Si       2.68828985       2.75116926       0.02879592       0.00000000
