10
Lattice="16.290000149 0.0 0.0 0.0 16.290000149 0.0 0.0 0.0 29.1751946751" Properties=species:S:1:pos:R:3:initial_magmoms:R:1 pbc="T T T"
Si       1.42088386       1.43809750       1.16983778       0.00000000
Si       1.44041231      -1.24729273      -1.36300674       0.00000000
Si      -1.29295360       1.40978548      -1.36674117       0.00000000
Si      -1.63769888      -1.05371866       1.43646989       0.00000000
H        0.25267093      -2.69952995       1.69820056       0.00000000
H       -1.09011052       1.41509602       2.80957125       0.00000000
Si      -2.59949306       2.48458340       0.26009686       0.00000000
Si      -0.05654259       2.51973722       2.60015170       0.00000000
Si      -3.31903866       0.62654599       1.67287649       0.00000000
Si       0.08701548      -2.66261681      -2.67548205       0.00000000
