10
Lattice="16.290000149 0.0 0.0 0.0 16.290000149 0.0 0.0 0.0 29.1751946751" Properties=species:S:1:pos:R:3:initial_magmoms:R:1 pbc="T T T"
Si      -1.29919889      -1.29035698       1.47226493       0.00000000
Si      -1.45009317       1.38479662      -1.22656895       0.00000000
Si       1.36243400       1.39504303       1.31824908       0.00000000
Si       1.43232136      -1.30693857      -1.35225277       0.00000000
Si      -2.62412977      -2.62655776       0.13494403       0.00000000
Si      -0.12876238       2.71060715      -2.59222363       0.00000000
Si       0.08574418      -2.52034631      -2.83425638       0.00000000
Si       2.71126882      -2.68019372       0.03518528       0.00000000
Si       2.65645297       0.04202820       2.75031351       0.00000000
Si       0.01206076       2.72160290       2.72490191       0.00000000
