10
Lattice="16.290000149 0.0 0.0 0.0 16.290000149 0.0 0.0 0.0 29.1751946751" Properties=species:S:1:pos:R:3:initial_magmoms:R:1 pbc="T T T"
Si       1.41889159      -1.33097446      -1.30194306       0.00000000
Si       1.37329588       1.32660874       1.36388200       0.00000000
Si      -1.35133696      -1.37554390       1.34696039       0.00000000
Si      -1.35132067       1.31875696      -1.40825747       0.00000000
Si       0.10682982      -2.69071706      -2.64773061       0.00000000
Si       0.00366525       2.70568757       2.68616017       0.00000000
Si       2.75325438       2.64438830       0.00023340       0.00000000
Si      -2.72091872      -0.01225008       2.68362193       0.00000000
Si      -2.71383257       2.69262299      -0.05893389       0.00000000
Si       0.01567098       2.66903507      -2.75869846       0.00000000
