10
Lattice="16.290000149 0.0 0.0 0.0 16.290000149 0.0 0.0 0.0 29.1751946751" Properties=species:S:1:pos:R:3:initial_magmoms:R:1 pbc="T T T"
Si       1.74671156       0.32340049      -1.49199028       0.00000000
Si      -1.91878283       1.05763803      -0.78005718       0.00000000
Si       0.64001782       0.67236161       2.14650660       0.00000000
Si      -0.04714326      -2.14639974       0.97690222       0.00000000
Si       1.86694805      -1.98131688      -1.72510009       0.00000000
Si      -0.60406579      -1.11271778       2.98908622       0.00000000
H        1.32160771       2.97102236       0.00361772       0.00000000
Si      -0.75595375       2.49730915      -2.28395094       0.00000000
Si      -2.89271307       1.45966872       1.37330559       0.00000000
Si       2.14622381      -2.88361999       0.51071178       0.00000000
