10
Lattice="16.290000149 0.0 0.0 0.0 16.290000149 0.0 0.0 0.0 29.1751946751" Properties=species:S:1:pos:R:3:initial_magmoms:R:1 pbc="T T T"
Si       1.42861509      -1.21494079       1.38369196       0.00000000
Si      -1.44041231       1.24729273       1.36300674       0.00000000
Si      -1.35339683      -1.41532408      -1.31247531       0.00000000
Si       1.36796742       1.42666192      -1.30109698       0.00000000
H       -1.18774138      -1.45223722       3.06120730       0.00000000
Si      -0.05038497      -2.41772924       2.77108917       0.00000000
Si       2.57570803      -2.63896373      -0.08081529       0.00000000
Si      -0.01952845       2.68539023       2.53284453       0.00000000
Si       2.56769335       0.02523321      -2.77601977       0.00000000
Si      -2.73336591       2.65707821      -0.00373442       0.00000000
