10
Lattice="16.290000149 0.0 0.0 0.0 16.290000149 0.0 0.0 0.0 29.1751946751" Properties=species:S:1:pos:R:3:initial_magmoms:R:1 pbc="T T T"
Si       1.39281130       1.43555626      -1.17829859       0.00000000
Si       1.70106698      -1.59808159       0.01642563       0.00000000
Si      -0.95778685       1.26884440       1.75558816       0.00000000
Si      -1.59549148      -0.81487468      -1.55906405       0.00000000
Si      -2.07212060       1.21438693      -2.62025341       0.00000000
Si      -0.17304867       2.71686251      -2.30346915       0.00000000
Si       0.62968996      -3.35893287      -1.04601825       0.00000000
Si      -2.40986117       2.68565087       0.53813647       0.00000000
Si      -0.29789523      -2.31536288      -2.88002934       0.00000000
Si       2.35362809      -2.02245239       2.14856637       0.00000000
