10
Lattice="16.290000149 0.0 0.0 0.0 16.290000149 0.0 0.0 0.0 29.1751946751" Properties=species:S:1:pos:R:3:initial_magmoms:R:1 pbc="T T T"
Si      -1.37114560       1.35984034       1.31944818       0.00000000
Si       1.33558326       1.37880190      -1.35685078       0.00000000
Si      -1.38126169      -1.33560082      -1.35947655       0.00000000
Si       1.32804226      -1.36267480       1.39057730       0.00000000
Si       2.64678782      -2.69803127      -0.01651316       0.00000000
Si      -2.70431921      -0.04856049       2.64408954       0.00000000
Si      -2.70164765       2.65613339      -0.11384161       0.00000000
Si      -0.00294849       2.71049312       2.67807864       0.00000000
Si      -0.03422529      -2.68310963      -2.72496318       0.00000000
Si       2.66103180       0.02695995      -2.74757396       0.00000000
