10
Lattice="16.290000149 0.0 0.0 0.0 16.290000149 0.0 0.0 0.0 29.1751946751" Properties=species:S:1:pos:R:3:initial_magmoms:R:1 pbc="T T T"
Si       1.41680647      -1.34306213       1.25473176       0.00000000
Si      -1.49794696       1.23579851       1.27990120       0.00000000
Si      -1.03943233      -1.85394211      -0.95210914       0.00000000
Si       0.86560174       1.72813118      -1.38259701       0.00000000
H       -2.05221422       0.77793547      -2.05508904       0.00000000
Si      -1.87335002      -0.60962068      -2.66560917       0.00000000
Si      -0.07828974       2.66485506       2.51578871       0.00000000
Si       2.64872144      -2.54410055      -0.34138771       0.00000000
Si      -0.83965177       3.39684622      -1.25637141       0.00000000
Si      -0.04344543      -2.78006120       2.46951685       0.00000000
