10
Lattice="16.290000149 0.0 0.0 0.0 16.290000149 0.0 0.0 0.0 29.1751946751" Properties=species:S:1:pos:R:3:initial_magmoms:R:1 pbc="T T T"
Si      -1.34922645      -1.35273790       1.35731758       0.00000000
Si      -1.36766673       1.35672895      -1.34147545       0.00000000
Si       1.33123443      -1.34918668      -1.39113163       0.00000000
Si       1.31440849       1.36604683       1.39472018       0.00000000
Si       0.03070370       2.69146640      -2.67603638       0.00000000
Si       2.68574143      -2.70775640      -0.03387240       0.00000000
Si      -2.69368903       0.01482390       2.70777899       0.00000000
Si       2.69017231       2.71422353       0.04379197       0.00000000
Si      -2.71840096      -2.70168023       0.00137123       0.00000000
Si       0.00373825      -2.70997184       2.71661908       0.00000000
