10
Lattice="16.290000149 0.0 0.0 0.0 16.290000149 0.0 0.0 0.0 29.1751946751" Properties=species:S:1:pos:R:3:initial_magmoms:R:1 pbc="T T T"
Si      -1.28990737      -1.44650803       1.27784435       0.00000000
Si       1.32256882      -1.39495018      -1.33806195       0.00000000
Si      -1.43423677       1.62940238      -0.92607903       0.00000000
Si       1.18786681       1.14969608       1.69335747       0.00000000
Si      -0.80793514       2.03473016       2.66687537       0.00000000
Si      -2.32121099       0.18084669       2.59373316       0.00000000
Si      -0.08638587       2.64847221      -2.55971488       0.00000000
Si       2.62668466       2.57236533       0.34674719       0.00000000
Si       0.23728014      -2.43381236       2.78955706       0.00000000
Si       1.76308301      -0.58887210       3.21186801       0.00000000
