10
Lattice="16.290000149 0.0 0.0 0.0 16.290000149 0.0 0.0 0.0 29.1751946751" Properties=species:S:1:pos:R:3:initial_magmoms:R:1 pbc="T T T"
H       -0.06957459      -1.07481421      -1.06130606       0.00000000
Si       2.19687105       0.18588519       0.65836744       0.00000000
Si      -1.62007309      -0.67802239       1.56233167       0.00000000
Si      -0.45035334       2.13415292      -0.88923076       0.00000000
H       -1.89208352       2.41893470      -0.44337543       0.00000000
H        1.08235322       0.72967798      -2.98829849       0.00000000
Si      -3.15459111      -1.40014180      -0.04775979       0.00000000
H       -1.28458054      -3.24724537       0.67654359       0.00000000
Si       2.99201691      -2.07552521       0.44404646       0.00000000
Si       3.51041358      -0.08151516      -1.25327884       0.00000000
