10
Lattice="16.290000149 0.0 0.0 0.0 16.290000149 0.0 0.0 0.0 29.1751946751" Properties=species:S:1:pos:R:3:initial_magmoms:R:1 pbc="T T T"
Si       1.35787414      -1.24201477       1.45671426       0.00000000
Si      -1.17065985       1.59188504       1.28662609       0.00000000
Si       1.31612287       1.42736239      -1.34620183       0.00000000
Si      -1.45899269      -1.38404728      -1.34958616       0.00000000
Si      -0.52439628       2.60228028      -2.27872858       0.00000000
Si       2.80304150      -2.43574598       0.09919566       0.00000000
Si      -1.45584872       3.41736510      -0.28381629       0.00000000
Si       0.00638894      -2.59454090      -2.68703543       0.00000000
Si      -2.64861882       0.28463517       2.65970702       0.00000000
Si       0.01228755      -2.70379793       2.69044017       0.00000000
