10
Lattice="16.290000149 0.0 0.0 0.0 16.290000149 0.0 0.0 0.0 29.1751946751" Properties=species:S:1:pos:R:3:initial_magmoms:R:1 pbc="T T T"
Si       1.34785090       1.01906983      -1.63363585       0.00000000
Si       1.43423677      -1.62940238       0.92607903       0.00000000
Si      -1.83769121      -1.18069107      -1.00464783       0.00000000
Si      -0.10821447       1.73361440       1.80314373       0.00000000
H       -2.26279505       1.46693080       0.49096018       0.00000000
Si       2.77275351       2.29135142      -0.22797497       0.00000000
Si       0.62630164       0.40532778       3.59295440       0.00000000
Si       2.62210358      -0.47970630       2.61943650       0.00000000
Si      -2.89900101       2.32051052      -0.58420410       0.00000000
Si       0.14432940      -3.07591041       2.20392338       0.00000000
