10
Lattice="16.290000149 0.0 0.0 0.0 16.290000149 0.0 0.0 0.0 29.1751946751" Properties=species:S:1:pos:R:3:initial_magmoms:R:1 pbc="T T T"
Si      -1.36301689      -1.34821417       1.35282460       0.00000000
Si      -1.36166482       1.36757809      -1.33607804       0.00000000
Si       1.36140418       1.34361550       1.36125623       0.00000000
Si       1.36313092      -1.35963183      -1.34783564       0.00000000
Si       0.01031157      -2.69741225       2.69126583       0.00000000
Si       2.71306694       0.02808396      -2.68295090       0.00000000
Si       0.00848709       2.72622926      -2.67486937       0.00000000
Si       0.00055386       2.69553890       2.71224280       0.00000000
Si      -2.74753659       0.01811448      -2.66174054       0.00000000
Si      -2.71349048      -2.71539641      -0.00110866       0.00000000
