10
Lattice="16.290000149 0.0 0.0 0.0 16.290000149 0.0 0.0 0.0 29.1751946751" Properties=species:S:1:pos:R:3:initial_magmoms:R:1 pbc="T T T"
Si      -1.26313313       1.42731352       1.32708741       0.00000000
Si       1.63358728      -1.18359883       1.21380509       0.00000000
Si       0.68083404       1.76375090      -1.50736561       0.00000000
Si      -1.33381544      -1.97815988      -0.48538771       0.00000000
Si       0.29795062      -2.59023220       2.56705828       0.00000000
Si       0.16406799       0.85333537      -3.60001480       0.00000000
Si      -2.58446391       0.10150299       2.69274210       0.00000000
Si      -0.40236300      -2.79324470      -2.48030000       0.00000000
Si       0.24330744       2.81227305       2.49479424       0.00000000
Si      -2.40328653       2.92833930      -0.05633730       0.00000000
