10
Lattice="16.290000149 0.0 0.0 0.0 16.290000149 0.0 0.0 0.0 29.1751946751" Properties=species:S:1:pos:R:3:initial_magmoms:R:1 pbc="T T T"
Si       1.30190463       1.33119259      -1.37350981       0.00000000
Si      -1.27019647      -1.46847835      -1.29286958       0.00000000
Si      -1.32256882       1.39495018       1.33806195       0.00000000
Si       1.21652092      -1.50311089       1.36102283       0.00000000
H       -1.91207135      -2.28801197      -0.21650912       0.00000000
Si       2.52698302       2.68667226       0.07900643       0.00000000
Si      -2.61247619      -0.05155785       2.61590630       0.00000000
Si      -0.18236655       2.61060447      -2.64070522       0.00000000
Si       2.67569606      -0.07358193      -2.66635022       0.00000000
Si       2.54996658      -2.80997616      -0.06377698       0.00000000
