10
Lattice="16.290000149 0.0 0.0 0.0 16.290000149 0.0 0.0 0.0 29.1751946751" Properties=species:S:1:pos:R:3:initial_magmoms:R:1 pbc="T T T"
Si       2.23192550      -0.50979555       0.32244425       0.00000000
Si      -1.05068872       0.66880713       2.06793780       0.00000000
Si      -0.05672178       2.06259095      -1.29333638       0.00000000
Si      -0.66028258      -1.76606408      -1.58249173       0.00000000
Si      -2.36371160       1.97513971      -0.93331448       0.00000000
H       -0.66112966      -2.91806031       1.53531544       0.00000000
Si       2.78884803      -1.54347751      -1.68973975       0.00000000
Si      -3.11901375       1.39078646       1.22080685       0.00000000
Si       3.47600910       1.27528384      -0.52013537       0.00000000
Si       1.15652485      -3.22353039      -1.73825810       0.00000000
