10
Lattice="16.290000149 0.0 0.0 0.0 16.290000149 0.0 0.0 0.0 29.1751946751" Properties=species:S:1:pos:R:3:initial_magmoms:R:1 pbc="T T T"
Si       1.28990737       1.44650803      -1.27784435       0.00000000
Si      -1.03130362       1.62735472       1.31588881       0.00000000
Si       1.52718751      -0.98730433       1.51171271       0.00000000
Si      -1.58250835      -1.31180113      -1.20586915       0.00000000
Si       2.47777418       2.59620411       0.41551312       0.00000000
Si      -1.55732401       0.37458855       3.24865793       0.00000000
H        0.70040485      -2.23645412      -2.83241542       0.00000000
Si       2.61247619       0.05155785      -2.61590630       0.00000000
Si       3.05299038       0.85763593       1.93402366       0.00000000
Si       2.52138251      -2.75211408       0.23579392       0.00000000
