10
Lattice="16.290000149 0.0 0.0 0.0 16.290000149 0.0 0.0 0.0 29.1751946751" Properties=species:S:1:pos:R:3:initial_magmoms:R:1 pbc="T T T"
Si      -1.61253082       0.17270658       1.67917833       0.00000000
Si       0.83439010       1.92887122      -1.01978975       0.00000000
Si       1.76813291      -1.15764886       1.03052623       0.00000000
Si      -1.56287890      -0.77879233      -1.59194450       0.00000000
H       -0.21229128       3.04212821      -1.00015485       0.00000000
Si      -2.04794624       2.46233615       1.37683579       0.00000000
Si       1.11241153       1.19290042      -3.22703911       0.00000000
Si       0.61597378      -2.79827994       2.21010852       0.00000000
Si      -2.47969640      -2.61472421      -0.42473248       0.00000000
Si      -0.41339133      -0.65203984      -3.64935005       0.00000000
