10
Lattice="16.290000149 0.0 0.0 0.0 16.290000149 0.0 0.0 0.0 29.1751946751" Properties=species:S:1:pos:R:3:initial_magmoms:R:1 pbc="T T T"
Si      -1.36950031       1.34791606      -1.34112535       0.00000000
Si      -1.37570680      -1.34245891       1.34170885       0.00000000
Si       1.35493705      -1.35317773      -1.36595344       0.00000000
Si       1.35710362       1.36487395       1.35647150       0.00000000
Si       0.01026270       2.69123834      -2.67664906       0.00000000
Si      -0.01422117      -2.73763227       2.64540243       0.00000000
Si       2.71751411      -2.69291621      -0.00192556       0.00000000
Si      -2.72482832       0.02547756       2.69783025       0.00000000
Si       2.71065602       0.01733256      -2.71224280       0.00000000
Si      -2.72984564      -2.69638598      -0.01849707       0.00000000
