10
Lattice="16.290000149 0.0 0.0 0.0 16.290000149 0.0 0.0 0.0 29.1751946751" Properties=species:S:1:pos:R:3:initial_magmoms:R:1 pbc="T T T"
Si      -1.36727673       1.23906628      -1.44694378       0.00000000
Si       1.19972593      -1.40142871      -1.47492279       0.00000000
Si      -1.36796742      -1.42666192       1.30109698       0.00000000
Si       1.43096248       1.41061627       1.31889385       0.00000000
Si      -0.07253937       2.74652661       2.56584167       0.00000000
Si       2.55526571      -2.75804364      -0.17125839       0.00000000
Si       0.06064767      -2.64160271       2.68478894       0.00000000
Si      -2.77236255       2.55736712      -0.13525620       0.00000000
Si       2.72787455       2.64487700      -0.18634197       0.00000000
Si      -0.04048065       2.63751392      -2.79165768       0.00000000
