10
Lattice="16.290000149 0.0 0.0 0.0 16.290000149 0.0 0.0 0.0 29.1751946751" Properties=species:S:1:pos:R:3:initial_magmoms:R:1 pbc="T T T"
Si      -1.34244262      -1.34603620      -1.38996462       0.00000000
Si       1.30847797       1.34738501      -1.42252414       0.00000000
Si       1.42451164      -1.36602403       1.29520359       0.00000000
Si      -1.41753952       1.35592097       1.33593216       0.00000000
Si       0.07617204      -2.65469336       2.66731300       0.00000000
Si      -2.67814281      -2.69564642      -0.01969326       0.00000000
Si       2.60192027       2.78667168      -0.11060316       0.00000000
Si       2.67617009      -0.04416545       2.76592516       0.00000000
Si      -0.10764432       2.82343821       2.61660651       0.00000000
Si       2.73168642      -0.01525721      -2.72306679       0.00000000
