10
Lattice="16.290000149 0.0 0.0 0.0 16.290000149 0.0 0.0 0.0 29.1751946751" Properties=species:S:1:pos:R:3:initial_magmoms:R:1 pbc="T T T"
H       -1.12213666       0.06773382       1.01141647       0.00000000
Si       0.21367593      -2.14068521      -0.89524085       0.00000000
Si       2.06770601       0.69367708       0.88263716       0.00000000
Si      -0.22222818       1.52932150      -1.82490843       0.00000000
H       -0.43704441       0.99215875       2.61686909       0.00000000
H       -2.03988269       1.83479159       1.44866512       0.00000000
Si       2.32204178      -1.55865979      -1.91444710       0.00000000
H        2.42128046      -2.34654194       0.69591592       0.00000000
Si       3.31530825       0.43088679      -1.06754955       0.00000000
Si       1.74019556       2.81587314       1.82371224       0.00000000
