10
Lattice="16.290000149 0.0 0.0 0.0 16.290000149 0.0 0.0 0.0 29.1751946751" Properties=species:S:1:pos:R:3:initial_magmoms:R:1 pbc="T T T"
Si      -1.41253849      -1.29637450      -1.34409830       0.00000000
Si      -1.38186442       1.35650089       1.32469096       0.00000000
Si       1.32136336       1.40322061      -1.34291204       0.00000000
Si       1.37171575      -1.41188689       1.30401450       0.00000000
Si       2.62560593       2.58738959       0.21039400       0.00000000
Si       2.66261681       0.04748535      -2.68696833       0.00000000
Si      -0.10572210      -2.72170064      -2.64670656       0.00000000
Si      -2.69219945       0.19886832      -2.68180432       0.00000000
Si      -2.73515618      -0.04114854       2.64514860       0.00000000
Si      -0.04473234       2.68123628       2.72972749       0.00000000
