10
Lattice="16.290000149 0.0 0.0 0.0 16.290000149 0.0 0.0 0.0 29.1751946751" Properties=species:S:1:pos:R:3:initial_magmoms:R:1 pbc="T T T"
Si      -1.56363965       1.07875639      -1.36423210       0.00000000
Si       1.38605095      -1.48058182      -1.21208346       0.00000000
Si      -0.84613519      -1.48729330       1.63351915       0.00000000
Si       0.42907860       1.81209962       1.48703050       0.00000000
H        0.35139159      -1.12155022       2.52231228       0.00000000
Si      -1.88072124       1.99112672       2.08588054       0.00000000
Si      -0.24868314       2.56655468      -2.63233194       0.00000000
Si      -3.04106610       2.16039611       0.06608182       0.00000000
Si       2.69863400      -0.12531897      -2.59878047       0.00000000
Si      -0.11549610      -2.82157464      -2.51338467       0.00000000
