10
Lattice="16.290000149 0.0 0.0 0.0 16.290000149 0.0 0.0 0.0 29.1751946751" Properties=species:S:1:pos:R:3:initial_magmoms:R:1 pbc="T T T"
Si      -1.35423658      -1.34447887       1.37549373       0.00000000
Si       1.33400440       1.35127180       1.39501193       0.00000000
Si      -1.37736838       1.34715043      -1.35863047       0.00000000
Si       1.36251190      -1.37386603      -1.34932358       0.00000000
Si       2.71383257      -2.69262299       0.05893389       0.00000000
Si       2.69791724       2.71282259       0.06552749       0.00000000
Si      -2.71575479      -2.69858513       0.02293170       0.00000000
Si      -0.02407662       2.74479987      -2.67908811       0.00000000
Si       2.72950355      -0.02358792      -2.69976457       0.00000000
Si      -2.72885195       2.71661816       0.00043763       0.00000000
