10
Lattice="16.290000149 0.0 0.0 0.0 16.290000149 0.0 0.0 0.0 29.1751946751" Properties=species:S:1:pos:R:3:initial_magmoms:R:1 pbc="T T T"
Si      -1.56585997       1.28130625      -1.12517056       0.00000000
Si      -1.39281130      -1.43555626       1.17829859       0.00000000
Si       1.56351421       1.12166425       1.47083826       0.00000000
Si       1.07276167      -1.10933272      -1.86683318       0.00000000
Si       2.09438903      -2.44589465      -0.24755153       0.00000000
Si       0.30825567      -3.03363786       1.19472422       0.00000000
Si       0.04847904       2.31557465      -2.52301249       0.00000000
Si       1.82070074       0.76460374      -3.15853575       0.00000000
Si      -2.53754219       2.73316881       0.38945967       0.00000000
Si      -3.46493190      -0.22116933      -1.44195482       0.00000000
