10
Lattice="16.290000149 0.0 0.0 0.0 16.290000149 0.0 0.0 0.0 29.1751946751" Properties=species:S:1:pos:R:3:initial_magmoms:R:1 pbc="T T T"
Si       2.24569055      -0.50640723       0.27757280       0.00000000
Si      -1.57353256      -1.68783461      -0.44188750       0.00000000
Si      -0.73019926       0.63309457       2.17988681       0.00000000
Si      -0.07337016       1.46118043      -1.93309005       0.00000000
H        0.26212239      -1.10804255      -2.81887813       0.00000000
Si      -2.82641277      -0.58135753      -2.04599805       0.00000000
Si      -1.30188052       3.31392360      -1.26830406       0.00000000
Si       1.30880377      -2.22129953      -2.83851304       0.00000000
Si       3.17714298      -1.32149205      -1.71733948       0.00000000
H       -0.00493587       3.86229388      -0.34543430       0.00000000
