10
Lattice="16.290000149 0.0 0.0 0.0 16.290000149 0.0 0.0 0.0 29.1751946751" Properties=species:S:1:pos:R:3:initial_magmoms:R:1 pbc="T T T"
Si      -0.97168222       1.45186255       1.51463023       0.00000000
Si       1.56585997      -1.28130625       1.12517056       0.00000000
Si       1.61433901       1.03426840      -1.39784193       0.00000000
Si      -1.89907193      -1.50247558      -0.31678426       0.00000000
H       -0.38977083      -2.35665803      -2.00532783       0.00000000
H        0.73127440      -0.69652783      -3.10123567       0.00000000
H       -2.50492961      -1.59254299      -1.71480124       0.00000000
Si       0.17304867      -2.71686251       2.30346915       0.00000000
Si      -2.66268197       2.38182608       0.20492657       0.00000000
H       -2.12705048       2.64217286      -1.18028250       0.00000000
