10
Lattice="16.290000149 0.0 0.0 0.0 16.290000149 0.0 0.0 0.0 29.1751946751" Properties=species:S:1:pos:R:3:initial_magmoms:R:1 pbc="T T T"
Si      -0.12023649       2.30471737       0.23310981       0.00000000
Si       1.60160023       0.04209336      -1.78493841       0.00000000
Si       0.27927576      -0.90230311       2.23581187       0.00000000
Si      -2.13014558      -0.95972536      -0.67175886       0.00000000
H        1.16849800      -2.58737330      -0.15538709       0.00000000
H        2.56218896      -1.82695610       0.60926559       0.00000000
Si      -1.86694805       1.98131688       1.72510009       0.00000000
Si      -1.91409131      -0.16508286       2.70200230       0.00000000
Si       3.20406384      -1.00742248      -0.46709487       0.00000000
Si      -1.06135867      -2.42307236      -2.13626610       0.00000000
