10
Lattice="16.290000149 0.0 0.0 0.0 16.290000149 0.0 0.0 0.0 29.1751946751" Properties=species:S:1:pos:R:3:initial_magmoms:R:1 pbc="T T T"
Si      -1.34675947      -1.33302700      -1.38899309       0.00000000
Si      -1.34379469       1.30318372       1.42395373       0.00000000
Si       1.30302082       1.35395965      -1.43427008       0.00000000
Si       1.34856766      -1.38460114       1.36221901       0.00000000
Si       2.69375515       2.64083708       0.00058350       0.00000000
Si      -2.69003288       2.64798839       0.05843791       0.00000000
Si       2.66304035      -0.10448406      -2.72173349       0.00000000
Si      -2.68828985      -2.75116926      -0.02879592       0.00000000
Si       0.01379763       2.65134413       2.79142428       0.00000000
Si       2.71269879      -0.05457150       2.74176809       0.00000000
