10
Lattice="16.290000149 0.0 0.0 0.0 16.290000149 0.0 0.0 0.0 29.1751946751" Properties=species:S:1:pos:R:3:initial_magmoms:R:1 pbc="T T T"
H       -1.04668138       1.11325698       0.01963491       0.00000000
Si      -0.83439010      -1.92887122       1.01978975       0.00000000
Si       0.27802143      -0.73597080      -2.20724935       0.00000000
Si       1.86833921       0.89980748       1.12117356       0.00000000
Si       2.54627689      -1.22151055      -2.08573467       0.00000000
Si      -2.39726900      -2.70766355      -0.57215474       0.00000000
Si       0.93688678       1.71489230       3.11608584       0.00000000
H        0.16832457       3.28568814      -1.71821474       0.00000000
Si      -2.88233634       0.53346492       2.39662554       0.00000000
Si       0.93374281      -3.08652009       2.05031598       0.00000000
