10
Lattice="16.290000149 0.0 0.0 0.0 16.290000149 0.0 0.0 0.0 29.1751946751" Properties=species:S:1:pos:R:3:initial_magmoms:R:1 pbc="T T T"
H        0.53563149       0.26034678      -1.38520907       0.00000000
Si       1.69099976      -0.92996353       1.30970366       0.00000000
Si      -0.84986560       1.87437629       1.11589285       0.00000000
Si      -1.79835086      -1.59637114      -0.11982252       0.00000000
H        1.80804341       2.01430739      -0.95863855       0.00000000
H       -1.06720678       1.10297962      -2.55341304       0.00000000
H       -0.14946075      -0.66407815      -2.99066168       0.00000000
Si      -2.16060788       0.50753124       2.60158128       0.00000000
Si       2.66268197      -2.38182608      -0.20492657       0.00000000
Si       0.42586947      -2.41303772       2.63667904       0.00000000
