10
Lattice="16.290000149 0.0 0.0 0.0 16.290000149 0.0 0.0 0.0 29.1751946751" Properties=species:S:1:pos:R:3:initial_magmoms:R:1 pbc="T T T"
Si       0.08332335      -0.69208066      -2.22989514       0.00000000
Si      -0.98878672      -1.78723293       1.15260399       0.00000000
Si       1.83910844       0.88171255       1.18591623       0.00000000
Si      -1.63312138       1.73539001      -0.08375936       0.00000000
H        2.53403984      -0.94662820      -0.73545414       0.00000000
Si      -2.30410649      -0.46418355       2.55360268       0.00000000
Si       0.55170973       2.33044742       2.51452250       0.00000000
Si      -2.12087657      -0.31060143      -3.03352588       0.00000000
Si      -2.07179480       1.98356816      -2.36710608       0.00000000
Si       2.02266416       0.33580206      -3.13132113       0.00000000
