10
Lattice="16.290000149 0.0 0.0 0.0 16.290000149 0.0 0.0 0.0 29.1751946751" Properties=species:S:1:pos:R:3:initial_magmoms:R:1 pbc="T T T"
H       -1.15800724       0.58101544      -0.77731471       0.00000000
Si       1.30653946      -1.07479792      -1.62683803       0.00000000
Si       1.27832518       1.66998566       1.17783178       0.00000000
Si      -0.71954560      -1.85803742       1.41277963       0.00000000
H       -1.83169649       0.58924189       1.55947251       0.00000000
H       -0.54265248       2.18564561      -1.89037756       0.00000000
H        1.50938254      -1.06948738       2.54947439       0.00000000
Si      -3.11371950       1.06903126       0.91119968       0.00000000
Si       2.54295047       0.03515382       2.34005484       0.00000000
H       -2.85435012      -0.58424086      -1.94703579       0.00000000
