10
Lattice="16.290000149 0.0 0.0 0.0 16.290000149 0.0 0.0 0.0 29.1751946751" Properties=species:S:1:pos:R:3:initial_magmoms:R:1 pbc="T T T"
Si       1.30012120      -1.34941474       1.41913982       0.00000000
Si      -1.37803627       1.34889346       1.35054894       0.00000000
Si      -1.42858414      -1.40395366      -1.24269699       0.00000000
Si       1.42723207       1.39067731      -1.28177717       0.00000000
Si      -2.63156807      -0.00685809      -2.68426379       0.00000000
Si       2.71463078      -0.05805756      -2.61038344       0.00000000
Si       0.05253525       2.65518857      -2.69951950       0.00000000
Si      -0.11326437      -2.72700304      -2.64369568       0.00000000
Si       2.63026487      -2.76864354       0.13222198       0.00000000
Si      -0.03093471       2.70585047       2.71291383       0.00000000
