10
Lattice="16.290000149 0.0 0.0 0.0 16.290000149 0.0 0.0 0.0 29.1751946751" Properties=species:S:1:pos:R:3:initial_magmoms:R:1 pbc="T T T"
Si       1.48427118      -1.27941189       1.26719541       0.00000000
Si      -1.40545234      -1.42495310      -1.24826070       0.00000000
Si      -1.22658814       1.43281791       1.41905229       0.00000000
Si       1.38587176       1.33786350      -1.38001588       0.00000000
Si       0.18236655      -2.61060447       2.64070522       0.00000000
Si      -2.58036860       2.74334843      -0.00671029       0.00000000
Si      -2.65658951      -0.02607377      -2.68388451       0.00000000
Si       0.03181437      -2.69497038      -2.66637939       0.00000000
Si       2.70934957       0.07606778       2.71971165       0.00000000
Si       2.76796099       2.69837174      -0.04630103       0.00000000
