10
Lattice="16.290000149 0.0 0.0 0.0 16.290000149 0.0 0.0 0.0 29.1751946751" Properties=species:S:1:pos:R:3:initial_magmoms:R:1 pbc="T T T"
Si       1.37881819       1.36404316       1.30448130       0.00000000
Si      -1.31685103       1.39171987      -1.34200060       0.00000000
Si       1.32734179      -1.35817876      -1.36688705       0.00000000
Si      -1.37015191      -1.35865117       1.33879133       0.00000000
Si      -2.62891280       0.03197727      -2.68778815       0.00000000
Si      -0.00676035       2.67846698       2.66252827       0.00000000
Si       2.73843048       0.04611699      -2.62458593       0.00000000
Si       2.70806591      -0.00358380       2.67991668       0.00000000
Si      -0.09231543      -2.78723532      -2.60277455       0.00000000
Si      -0.00848709      -2.72622926       2.67486937       0.00000000
