10
Lattice="16.290000149 0.0 0.0 0.0 16.290000149 0.0 0.0 0.0 29.1751946751" Properties=species:S:1:pos:R:3:initial_magmoms:R:1 pbc="T T T"
Si       1.76717180       1.00344772       1.15670894       0.00000000
Si       1.33344566      -1.30686526      -1.42479981       0.00000000
Si      -1.21652092       1.50311089      -1.36102283       0.00000000
Si      -1.30761460      -1.30056103       1.49067740       0.00000000
H       -3.12859227      -0.78490108      -1.57753195       0.00000000
Si      -2.30180960       0.46424871       2.76659619       0.00000000
Si      -2.48671739       0.03463254      -2.65389241       0.00000000
Si       3.41448177      -0.65254483       1.25243276       0.00000000
Si       2.74939365      -2.52923429      -0.04551330       0.00000000
Si       2.68657940       2.73440684      -0.12495736       0.00000000
