10
Lattice="16.290000149 0.0 0.0 0.0 16.290000149 0.0 0.0 0.0 29.1751946751" Properties=species:S:1:pos:R:3:initial_magmoms:R:1 pbc="T T T"
Si      -0.08332335       0.69208066       2.22989514       0.00000000
Si       0.72936847      -2.19030781      -0.40247181       0.00000000
Si       1.93934081       1.02788272      -0.90142599       0.00000000
Si      -2.20419992       0.38147922      -0.80363074       0.00000000
H        2.45071649      -0.25454754       1.49444100       0.00000000
Si       2.62958069      -1.64210369       0.88392087       0.00000000
Si      -2.15511815       2.67564881      -0.13721094       0.00000000
Si       1.46300491      -1.84612128      -2.66430795       0.00000000
Si       1.01175562       2.07145271      -2.73543708       0.00000000
Si       0.24105942       0.02529837      -3.61422312       0.00000000
