10
Lattice="16.290000149 0.0 0.0 0.0 16.290000149 0.0 0.0 0.0 29.1751946751" Properties=species:S:1:pos:R:3:initial_magmoms:R:1 pbc="T T T"
Si       1.38557854      -1.31442382      -1.35804696       0.00000000
Si       1.37034739       1.36153450       1.32715043       0.00000000
Si      -1.35568639       1.37083609      -1.33870381       0.00000000
Si      -1.35609364      -1.35470899       1.35860129       0.00000000
Si       0.00676035      -2.67846698      -2.66252827       0.00000000
Si      -0.00969255       2.70866864       2.64747387       0.00000000
Si       0.02427210       2.68861565      -2.70235241       0.00000000
Si       2.71482626      -2.68205078       0.01738842       0.00000000
Si      -2.73349460       0.01260846       2.67151423       0.00000000
Si      -2.73450458      -2.69013062       0.01374152       0.00000000
