10
Lattice="16.290000149 0.0 0.0 0.0 16.290000149 0.0 0.0 0.0 29.1751946751" Properties=species:S:1:pos:R:3:initial_magmoms:R:1 pbc="T T T"
Si       1.32493087       1.33620078       1.33732090       0.00000000
Si      -1.41680647       1.34306213      -1.25473176       0.00000000
Si       1.23191497      -1.20103842      -1.59611947       0.00000000
Si      -1.46025190      -1.43699907       1.21478509       0.00000000
Si      -2.45623880      -0.51087998      -2.20684090       0.00000000
Si      -0.71016256      -2.05321719      -2.65823047       0.00000000
Si       2.62412977       2.62655776      -0.13494403       0.00000000
Si       2.64194904      -0.09890588       2.61321052       0.00000000
Si       2.53280180      -2.73102781      -0.27792290       0.00000000
Si      -0.11785815       2.66795065       2.61986246       0.00000000
