10
Lattice="16.290000149 0.0 0.0 0.0 16.290000149 0.0 0.0 0.0 29.1751946751" Properties=species:S:1:pos:R:3:initial_magmoms:R:1 pbc="T T T"
Si       1.33560571      -1.35812989       1.36796653       0.00000000
Si      -1.35708245      -1.35177679      -1.35731758       0.00000000
Si      -1.32544854       1.35184195       1.39072318       0.00000000
Si       1.35655465       1.35405739      -1.35976830       0.00000000
Si       2.68624220       0.02801880       2.69193686       0.00000000
Si      -2.67841323       2.70907589       0.03142168       0.00000000
Si       0.03092819      -2.71293662      -2.68009173       0.00000000
Si      -2.69525709      -2.71006958       0.02261078       0.00000000
Si      -2.66103180      -0.02695995       2.74757396       0.00000000
Si       2.69531573       2.71536383       0.00898596       0.00000000
