10
Lattice="16.290000149 0.0 0.0 0.0 16.290000149 0.0 0.0 0.0 29.1751946751" Properties=species:S:1:pos:R:3:initial_magmoms:R:1 pbc="T T T"
Si       1.30194568      -1.38095218       1.37598971       0.00000000
Si      -1.37355652      -1.38533419      -1.30713625       0.00000000
Si      -1.32330187       1.36953289       1.37403497       0.00000000
Si       1.35408997       1.34931700      -1.37266373       0.00000000
Si      -2.68187159       2.69405651      -0.02042264       0.00000000
Si       2.68403491      -0.02044395       2.70970456       0.00000000
Si      -0.00192222      -2.72245976      -2.67413999       0.00000000
Si      -2.69638598      -0.02068830      -2.70150633       0.00000000
Si       2.69932307       2.70865235      -0.01937233       0.00000000
Si      -2.66429468       0.02453274       2.74929529       0.00000000
