10
Lattice="16.290000149 0.0 0.0 0.0 16.290000149 0.0 0.0 0.0 29.1751946751" Properties=species:S:1:pos:R:3:initial_magmoms:R:1 pbc="T T T"
Si       1.33876108       1.36130644       1.36875426       0.00000000
Si      -1.35450700       1.35856972      -1.35725923       0.00000000
Si      -1.35655465      -1.35405739       1.35976830       0.00000000
Si       1.36676359      -1.35493705      -1.35092821       0.00000000
Si      -2.68574143       2.70775640       0.03387240       0.00000000
Si       2.70674642       0.00487071       2.69812200       0.00000000
Si       2.70607853       2.70570386       0.02564500       0.00000000
Si       0.00524538      -2.70904331      -2.70349024       0.00000000
Si      -2.71363709      -2.70583418       0.00245072       0.00000000
Si       2.71391402      -2.71533125       0.01613388       0.00000000
