10
Lattice="16.290000149 0.0 0.0 0.0 16.290000149 0.0 0.0 0.0 29.1751946751" Properties=species:S:1:pos:R:3:initial_magmoms:R:1 pbc="T T T"
Si      -1.36731745      -1.34439742       1.34310926       0.00000000
Si      -1.38298843       1.34565175      -1.33634062       0.00000000
Si       1.34892604      -1.36489024      -1.35705501       0.00000000
Si       1.36723600       1.36055710       1.35399161       0.00000000
Si       0.00425169       2.70500339      -2.64096780       0.00000000
Si       0.00066789      -2.70083315       2.67247701       0.00000000
Si       2.71283888      -0.00333945      -2.68653945       0.00000000
Si      -2.70607853      -2.70570386      -0.02564500       0.00000000
Si      -2.68607441       0.01989009       2.73193605       0.00000000
Si      -2.70164765       2.71627607       0.05201937       0.00000000
