10
Lattice="16.290000149 0.0 0.0 0.0 16.290000149 0.0 0.0 0.0 29.1751946751" Properties=species:S:1:pos:R:3:initial_magmoms:R:1 pbc="T T T"
Si       1.37528326       1.35633799      -1.33330640       0.00000000
Si       1.37020078      -1.34179102       1.35536284       0.00000000
Si      -1.32115159       1.37003788       1.38089114       0.00000000
Si      -1.36723600      -1.36055710      -1.35399161       0.00000000
Si      -0.00710244       2.71586068      -2.65631395       0.00000000
Si      -0.01612710      -2.70322778       2.67046392       0.00000000
Si       2.72552879      -0.01935252      -2.68359276       0.00000000
Si      -2.68307705       0.01938510       2.73097327       0.00000000
Si       2.71932230      -2.70972749      -0.00075856       0.00000000
Si      -2.71184519       2.71823087       0.04828495       0.00000000
