10
Lattice="16.290000149 0.0 0.0 0.0 16.290000149 0.0 0.0 0.0 29.1751946751" Properties=species:S:1:pos:R:3:initial_magmoms:R:1 pbc="T T T"
Si      -1.39261582      -1.34319196      -1.32963032       0.00000000
Si      -1.35881407       1.35552349       1.35434171       0.00000000
Si       1.32981787      -1.37002159       1.37275126       0.00000000
Si       1.36018243       1.34451145      -1.37251786       0.00000000
Si      -0.03639186      -2.73852821      -2.61879465       0.00000000
Si       2.70728399       2.70146846      -0.01015297       0.00000000
Si      -2.70183825       2.71309952      -0.00994874       0.00000000
Si       2.69000030      -2.72778496       0.03369735       0.00000000
Si       2.70352100      -0.02241504       2.71562712       0.00000000
Si      -0.00972513       2.71653671       2.70494900       0.00000000
