10
Lattice="16.290000149 0.0 0.0 0.0 16.290000149 0.0 0.0 0.0 29.1751946751" Properties=species:S:1:pos:R:3:initial_magmoms:R:1 pbc="T T T"
Si       1.37015191       1.36888129       1.32519569       0.00000000
Si      -1.32515893       1.38290698      -1.36067273       0.00000000
Si       1.37960174      -1.34845526      -1.34109617       0.00000000
Si      -1.35149986      -1.35163996       1.37313054       0.00000000
Si      -2.68345172      -2.70523145      -0.01111575       0.00000000
Si      -2.69430086       0.03459996      -2.69844293       0.00000000
Si       0.00451233       2.72013680       2.67460680       0.00000000
Si       2.69822675       0.00819387       2.69981416       0.00000000
Si       2.70414002       0.03523527      -2.70293591       0.00000000
Si      -2.69081480       2.72916147      -0.01044472       0.00000000
