10
Lattice="16.290000149 0.0 0.0 0.0 16.290000149 0.0 0.0 0.0 29.1751946751" Properties=species:S:1:pos:R:3:initial_magmoms:R:1 pbc="T T T"
Si       1.31874556      -1.33535647      -1.40709046       0.00000000
Si       1.38904017       1.37676565       1.31171675       0.00000000
Si      -1.32804226       1.36267480      -1.39057730       0.00000000
Si      -1.35130438      -1.35410626       1.39060648       0.00000000
Si      -0.01604565       2.69506649       2.62340433       0.00000000
Si       2.64587069      -2.69428457      -0.03994084       0.00000000
Si      -2.70387938      -2.67447593      -0.01368317       0.00000000
Si      -2.69918786       2.72251514      -0.07112912       0.00000000
Si       2.66859524       0.03150486      -2.77018473       0.00000000
Si       0.03495264      -2.70428663       2.74728221       0.00000000
