10
Lattice="16.290000149 0.0 0.0 0.0 16.290000149 0.0 0.0 0.0 29.1751946751" Properties=species:S:1:pos:R:3:initial_magmoms:R:1 pbc="T T T"
Si      -1.34537319       1.36104417      -1.35582965       0.00000000
Si       1.35703846       1.36251190       1.35025718       0.00000000
Si      -1.37576382      -1.34817670       1.35092821       0.00000000
Si       1.31865922      -1.37062432      -1.38835999       0.00000000
Si       0.01557324      -2.69638598       2.67991668       0.00000000
Si      -2.65946861      -0.02275713      -2.71982835       0.00000000
Si       2.70589934      -0.01127268      -2.69298717       0.00000000
Si      -0.02674818       2.71769330       2.68508069       0.00000000
Si      -2.69017231      -2.71422353      -0.04379197       0.00000000
Si       2.70164765      -2.71627607      -0.05201937       0.00000000
