10
Lattice="10.86 0.0 0.0 0.0 10.86 0.0 0.0 0.0 10.86" Properties=species:S:1:pos:R:3:initial_magmoms:R:1 pbc="T T T"
Si       1.43767938       1.51657728       1.18863786       0.00000000
Si       1.43767938      -1.19842272      -1.52636214       0.00000000
Si      -1.27732062       1.51657728      -1.52636214       0.00000000
Si      -2.77367658      -2.54595324      -0.25699104       0.00000000
Si       2.79517938       0.15907728       2.54613786       0.00000000
Si       2.79517938      -2.55592272      -0.16886214       0.00000000
Si       0.06183684      -2.78054010       2.66282856       0.00000000
Si       0.08017938      -2.55592272      -2.88386214       0.00000000
Si       0.05685210       2.96992764       2.50326258       0.00000000
Si      -2.63482062       0.15907728      -2.88386214       0.00000000
