10
Lattice="10.86 0.0 0.0 0.0 10.86 0.0 0.0 0.0 10.86" Properties=species:S:1:pos:R:3:initial_magmoms:R:1 pbc="T T T"
Si      -1.35750000       1.35750000      -1.35750000       0.00000000
Si       1.35750000       1.35750000       1.35750000       0.00000000
Si      -1.35750000      -1.35750000       1.35750000       0.00000000
Si       1.35750000      -1.35750000      -1.35750000       0.00000000
Si       2.65016580      -2.48217246       0.22697400       0.00000000
Si       2.56768410      -0.02734548       2.65364100       0.00000000
Si      -2.79517938      -0.15907728      -2.54613786       0.00000000
Si       3.04000722       2.26554804      -0.03323160       0.00000000
Si      -2.81503146       0.15218118       2.59165212       0.00000000
Si       0.00000000       2.71500000      -2.71500000       0.00000000
