10
Lattice="10.86 0.0 0.0 0.0 10.86 0.0 0.0 0.0 10.86" Properties=species:S:1:pos:R:3:initial_magmoms:R:1 pbc="T T T"
Si       1.14030000       1.47952296      -1.23522726       0.00000000
Si       1.14030000      -1.23547704       1.47977274       0.00000000
Si      -1.57470000      -1.23547704      -1.23522726       0.00000000
Si       2.49780000       0.12202296      -2.59272726       0.00000000
Si       2.49780000      -2.59297704       0.12227274       0.00000000
Si      -0.21720000      -2.59297704      -2.59272726       0.00000000
Si       2.49780000       2.83702296       0.12227274       0.00000000
Si       2.49780000       0.12202296       2.83727274       0.00000000
Si      -0.21720000       2.83702296      -2.59272726       0.00000000
Si      -0.21720000      -2.59297704       2.83727274       0.00000000
