10
Lattice="10.86 0.0 0.0 0.0 10.86 0.0 0.0 0.0 10.86" Properties=species:S:1:pos:R:3:initial_magmoms:R:1 pbc="T T T"
Si       1.11183594      -1.19041890      -1.42853526       0.00000000
Si       1.11183594       1.52458110       1.28646474       0.00000000
Si      -1.60316406      -1.19041890       1.28646474       0.00000000
Si       2.46933594      -2.54791890      -0.07103526       0.00000000
Si       2.46933594       0.16708110       2.64396474       0.00000000
Si      -0.24566406      -2.54791890       2.64396474       0.00000000
Si       2.46933594       0.16708110      -2.78603526       0.00000000
Si      -0.24566406      -2.54791890      -2.78603526       0.00000000
Si       2.46933594       2.88208110      -0.07103526       0.00000000
Si      -0.01510626       2.50732422       2.86261998       0.00000000
