10
Lattice="10.86 0.0 0.0 0.0 10.86 0.0 0.0 0.0 10.86" Properties=species:S:1:pos:R:3:initial_magmoms:R:1 pbc="T T T"
Si       1.35750000       1.35750000       1.35750000       0.00000000
Si      -1.35750000       1.35750000      -1.35750000       0.00000000
Si      -1.35750000      -1.35750000       1.35750000       0.00000000
Si       1.35750000      -1.35750000      -1.35750000       0.00000000
Si      -2.61971436       0.17275002       2.60899554       0.00000000
Si      -2.48928576       0.05830734      -2.76543384       0.00000000
Si      -0.05195424      -2.59956906      -2.66759610       0.00000000
Si      -0.13998540       2.49266322      -2.82626070       0.00000000
Si      -2.71500000       2.71500000       0.00000000       0.00000000
Si       2.71500000       2.71500000       0.00000000       0.00000000
