10
Lattice="10.86 0.0 0.0 0.0 10.86 0.0 0.0 0.0 10.86" Properties=species:S:1:pos:R:3:initial_magmoms:R:1 pbc="T T T"
Si      -1.23849612       1.18652016      -1.40086398       0.00000000
Si       1.18259970       1.54859256       1.32633180       0.00000000
Si      -1.23849612      -1.52847984       1.31413602       0.00000000
Si       1.47650388      -1.52847984      -1.40086398       0.00000000
Si       0.99794712       2.84964228      -0.50114556       0.00000000
Si      -2.59599612       2.54402016      -0.04336398       0.00000000
Si       2.70497622       0.01197858       2.53958928       0.00000000
Si      -2.59599612      -0.17097984       2.67163602       0.00000000
Si      -2.59599612      -0.17097984      -2.75836398       0.00000000
Si       0.27416070       2.54156580      -2.89509138       0.00000000
