10
Lattice="16.28999089631971 0.0 0.0 0.0 16.28999089631971 0.0 0.0 0.0 34.5300574570662" Properties=species:S:1:pos:R:3:initial_magmoms:R:1 pbc="T T T"
Si      -1.35790182      -1.35655076       1.35748091       0.00000000
Si       1.35884664       1.35790311       1.35744638       0.00000000
Si       1.35949824      -1.35371630      -1.36224606       0.00000000
Si      -1.36138788       1.36022280      -1.35672125       0.00000000
Si       0.01907559       2.70481407      -2.71384995       0.00000000
Si      -2.70925506      -0.00676136      -2.71806952       0.00000000
Si      -2.71437012       0.00065059       2.71409856       0.00000000
Si      -2.71463076      -2.71414307      -0.00082872       0.00000000
Si      -2.71389771       2.71493016       0.00044889       0.00000000
Si       0.00122175       2.71527225       2.71437480       0.00000000
