10
Lattice="16.28999089631971 0.0 0.0 0.0 16.28999089631971 0.0 0.0 0.0 34.5300574570662" Properties=species:S:1:pos:R:3:initial_magmoms:R:1 pbc="T T T"
Si       1.80722889      -0.52821954       1.38248068       0.00000000
Si      -0.59404743      -2.25127800      -0.55482927       0.00000000
Si       1.57851729       0.41132250      -1.86655783       0.00000000
Si      -1.69960086       1.67619213       1.17978913       0.00000000
Si       3.28654008       1.24724385       0.88593818       0.00000000
Si       0.60704685       2.40834618      -2.67632266       0.00000000
Si       2.88023490      -2.41554636       0.36001058       0.00000000
Si      -1.45244898      -3.21688404       1.37844066       0.00000000
Si      -3.63695427       1.32830289      -0.15766433       0.00000000
Si      -2.11714614      -2.27053278      -2.32124988       0.00000000
