10
Lattice="16.28999089631971 0.0 0.0 0.0 16.28999089631971 0.0 0.0 0.0 34.5300574570662" Properties=species:S:1:pos:R:3:initial_magmoms:R:1 pbc="T T T"
Si      -1.18917000       1.46996073      -1.32813380       0.00000000
Si       1.33931493       1.36290285       1.34352385       0.00000000
Si      -1.38372147      -1.34860023       1.34165923       0.00000000
Si       1.26438093      -1.43729928      -1.40368560       0.00000000
Si      -2.31705702      -0.16464303      -2.76211751       0.00000000
Si      -0.46766961      -1.81335393      -3.12903410       0.00000000
Si       2.66440869      -2.70713736       0.00470645       0.00000000
Si       2.66813910       2.71340901      -0.02501359       0.00000000
Si       2.69234604       0.00791694       2.70186801       0.00000000
Si      -0.02091636      -2.71008585       2.69965808       0.00000000
