10
Lattice="16.28999089631971 0.0 0.0 0.0 16.28999089631971 0.0 0.0 0.0 34.5300574570662" Properties=species:S:1:pos:R:3:initial_magmoms:R:1 pbc="T T T"
Si      -1.33931493      -1.36290285      -1.34352385       0.00000000
Si       1.32882417       1.35050616      -1.36853744       0.00000000
Si       1.35303111      -1.35498591       1.35834416       0.00000000
Si      -1.36187658       1.35650088       1.35720467       0.00000000
Si      -2.52848493       0.10705788      -2.67165765       0.00000000
Si       2.62917342      -0.09241317      -2.65569094       0.00000000
Si       2.71016730      -2.71207323      -0.00241711       0.00000000
Si       2.71199178       0.00123804       2.71475463       0.00000000
Si      -0.00322542      -2.71353933       2.71461651       0.00000000
Si      -0.00311139       2.71617831       2.71465104       0.00000000
