10
Lattice="16.28999089631971 0.0 0.0 0.0 16.28999089631971 0.0 0.0 0.0 34.5300574570662" Properties=species:S:1:pos:R:3:initial_magmoms:R:1 pbc="T T T"
Si       1.30930875      -1.41278283       1.33044386       0.00000000
Si       1.34627076       1.35286821      -1.35827510       0.00000000
Si      -1.27435041       1.29376809       1.49511779       0.00000000
Si      -1.37310039      -1.35682668      -1.35806792       0.00000000
Si      -0.34259499      -2.42367507       2.66986553       0.00000000
Si      -2.00689542      -0.51665364       3.03326006       0.00000000
Si       2.67379173      -2.70972747      -0.02924698       0.00000000
Si      -2.70990666       2.67781536       0.00849440       0.00000000
Si       2.69640225       2.71995759       0.00490327       0.00000000
Si       2.70215262      -0.00043983      -2.71727533       0.00000000
