10
Lattice="16.28999089631971 0.0 0.0 0.0 16.28999089631971 0.0 0.0 0.0 34.5300574570662" Properties=species:S:1:pos:R:3:initial_magmoms:R:1 pbc="T T T"
Si       1.65190374       1.01089224      -1.33942168       0.00000000
Si      -1.07960346      -1.63833417      -1.34991882       0.00000000
Si       1.44866970      -1.60169796       1.17409167       0.00000000
Si      -1.66430043       1.90702143       0.36339453       0.00000000
Si      -2.41891839      -0.28207764      -2.66644706       0.00000000
Si       0.34259499       2.42367507      -2.66986553       0.00000000
Si      -2.54956419      -2.82590775       0.13988134       0.00000000
Si       1.86412986       3.23262018       1.29487788       0.00000000
Si       3.41888004       2.05438077      -0.17406612       0.00000000
Si      -0.93175542       3.71744316      -1.17474774       0.00000000
