10
Lattice="16.28999089631971 0.0 0.0 0.0 16.28999089631971 0.0 0.0 0.0 34.5300574570662" Properties=species:S:1:pos:R:3:initial_magmoms:R:1 pbc="T T T"
Si      -0.50169942       0.29673864       2.28330133       0.00000000
Si      -2.24376831      -0.49409199      -0.71964133       0.00000000
Si       1.35679410      -1.95100443      -0.62551234       0.00000000
Si       0.76888800       2.26821960      -0.61152766       0.00000000
Si      -1.29990942       2.80751634      -1.68016447       0.00000000
Si      -1.62489492       2.48329647       2.14828873       0.00000000
Si      -2.40839505       0.82114632      -2.70954059       0.00000000
Si      -0.29556576      -3.73488975      -0.36042494       0.00000000
Si      -2.37009726      -2.79241551      -1.00258078       0.00000000
Si       3.67471449       0.07174116      -1.03127527       0.00000000
