10
Lattice="16.28999089631971 0.0 0.0 0.0 16.28999089631971 0.0 0.0 0.0 34.5300574570662" Properties=species:S:1:pos:R:3:initial_magmoms:R:1 pbc="T T T"
Si      -0.12632895      -2.29832352      -0.28293945       0.00000000
Si      -1.75987386       1.06888464       1.18403633       0.00000000
Si      -0.16462674       1.31523831      -1.98989926       0.00000000
Si       2.24376831       0.49409199       0.71964133       0.00000000
Si      -0.68641173       3.15022536       0.81998573       0.00000000
Si       1.74206889       0.79083063       3.00294266       0.00000000
Si       0.94385889       3.30160833      -0.96052315       0.00000000
Si      -2.52480339       1.25224488      -2.22971065       0.00000000
Si      -3.64011127       0.89541243      -0.17534373       0.00000000
Si       1.94820255      -3.24079776       0.35921639       0.00000000
