10
Lattice="16.28999089631971 0.0 0.0 0.0 16.28999089631971 0.0 0.0 0.0 34.5300574570662" Properties=species:S:1:pos:R:3:initial_magmoms:R:1 pbc="T T T"
Si       1.95947686      -0.92535345      -0.84339712       0.00000000
Si      -1.02043492      -1.66579911       1.40865448       0.00000000
Si      -1.05249690       0.33979311      -2.18654805       0.00000000
Si       1.17006346       1.78543287       1.22878731       0.00000000
Si       1.16266780      -2.59193285      -2.36372187       0.00000000
Si      -2.62473181       2.31925617       1.24398055       0.00000000
Si       3.29827051      -1.53931215       1.04001138       0.00000000
Si       3.26160172       0.87055389      -1.76034331       0.00000000
Si      -0.57609585       3.42221949       1.66918391       0.00000000
Si      -0.73413166      -1.66144316      -3.42818055       0.00000000
