10
Lattice="16.28999089631971 0.0 0.0 0.0 16.28999089631971 0.0 0.0 0.0 34.5300574570662" Properties=species:S:1:pos:R:3:initial_magmoms:R:1 pbc="T T T"
Si       1.33806060       1.33744158      -1.39000133       0.00000000
Si      -1.35949824       1.35371630       1.36224606       0.00000000
Si       1.35508365      -1.36287027       1.36069220       0.00000000
Si      -1.34780202      -1.38437307      -1.39632034       0.00000000
Si       2.57684994      -0.24648399      -2.80104875       0.00000000
Si       2.71472850       2.71090265       0.00069060       0.00000000
Si      -0.00065160       2.71161941       2.71969244       0.00000000
Si       2.71432125      -0.00407250       2.71910542       0.00000000
Si      -2.71780731      -2.71617831       0.00148479       0.00000000
Si      -2.72088612       2.71393911       0.00552481       0.00000000
