10
Lattice="16.28999089631971 0.0 0.0 0.0 16.28999089631971 0.0 0.0 0.0 34.5300574570662" Properties=species:S:1:pos:R:3:initial_magmoms:R:1 pbc="T T T"
Si      -2.08208910      -1.04993448       0.17227055       0.00000000
Si       1.89679946      -0.93048969       1.06445868       0.00000000
Si      -0.31836524       2.00123627       1.24163250       0.00000000
Si       0.21883171      -0.01012912      -2.39963315       0.00000000
Si       3.32122963      -1.00547419      -0.78559378       0.00000000
Si       2.54419664       0.41323820      -2.46285772       0.00000000
Si      -3.21888675       0.17467278       1.82170326       0.00000000
Si      -2.64609777       2.35702616       1.07457599       0.00000000
Si       2.69360851       0.73608971       2.58478343       0.00000000
Si      -1.17893892       1.78083257      -3.15563465       0.00000000
