10
Lattice="16.28999089631971 0.0 0.0 0.0 16.28999089631971 0.0 0.0 0.0 34.5300574570662" Properties=species:S:1:pos:R:3:initial_magmoms:R:1 pbc="T T T"
Si       0.47829069       1.59283198       1.64387336       0.00000000
Si      -1.72488294      -1.58985513       0.05490282       0.00000000
Si      -0.06545322       1.50474870      -1.84594337       0.00000000
Si       1.77481179      -1.55292570      -0.52637649       0.00000000
Si      -1.18895823      -2.09127762      -2.21714170       0.00000000
Si       1.09217934      -1.62882081      -2.75363550       0.00000000
Si      -0.58021722      -0.90994311       3.50404313       0.00000000
Si       3.65513391      -0.39902355       0.32506614       0.00000000
Si      -1.15005771      -2.86959753       2.07121759       0.00000000
Si       1.74456126       3.27524201       0.63863377       0.00000000
