10
Lattice="16.28999089631971 0.0 0.0 0.0 16.28999089631971 0.0 0.0 0.0 34.5300574570662" Properties=species:S:1:pos:R:3:initial_magmoms:R:1 pbc="T T T"
Si      -1.34037378      -1.33229394      -1.38538121       0.00000000
Si       1.37319813       1.37930688      -1.37888956       0.00000000
Si      -1.48830327       1.17794619       1.46238328       0.00000000
Si       1.14650649      -1.58045580       1.47595360       0.00000000
Si       2.56494195       0.02762784       2.53854765       0.00000000
Si      -0.10419084       2.76692166       2.53543995       0.00000000
Si      -2.70821250      -2.68525500      -0.00742397       0.00000000
Si       2.70793557      -2.69966025      -0.01001372       0.00000000
Si      -2.69772174       2.71836117      -0.00801098       0.00000000
Si       0.01454697      -2.69299764      -2.74355272       0.00000000
