10
Lattice="16.28999089631971 0.0 0.0 0.0 16.28999089631971 0.0 0.0 0.0 34.5300574570662" Properties=species:S:1:pos:R:3:initial_magmoms:R:1 pbc="T T T"
Si      -1.33353198      -1.34881919      -1.37585091       0.00000000
Si       1.27884645      -1.37175551       1.44874390       0.00000000
Si       1.37855754       1.36541151      -1.37212166       0.00000000
Si      -1.56142908       1.11920445       1.48596732       0.00000000
Si       2.33119674       0.33888087       2.74030689       0.00000000
Si      -0.14299362       2.72728809       2.54856137       0.00000000
Si      -2.69899236      -2.70059597      -0.01298331       0.00000000
Si      -2.70793557       2.69966025       0.01001372       0.00000000
Si       2.71989243      -2.69782667      -0.00673336       0.00000000
Si      -2.69338860       0.00666261      -2.73353900       0.00000000
