10
Lattice="16.28999089631971 0.0 0.0 0.0 16.28999089631971 0.0 0.0 0.0 34.5300574570662" Properties=species:S:1:pos:R:3:initial_magmoms:R:1 pbc="T T T"
Si       0.38916810       0.33203907      -2.30035918       0.00000000
Si       0.28843074      -2.36902538      -0.01374297       0.00000000
Si       1.46671902       0.96884775       1.63814137       0.00000000
Si      -2.00756331       1.13311611       0.72330152       0.00000000
Si      -1.96050150      -2.96361431       0.28066046       0.00000000
Si      -0.28781172       2.54106081      -2.55156549       0.00000000
Si       2.15677971      -2.56871213       1.36024331       0.00000000
Si       2.09090295      -0.87405461       2.91799867       0.00000000
Si       2.69588097       0.21522348      -2.72870479       0.00000000
Si       0.16500141       3.79571661      -0.58842704       0.00000000
