10
Lattice="16.28999089631971 0.0 0.0 0.0 16.28999089631971 0.0 0.0 0.0 34.5300574570662" Properties=species:S:1:pos:R:3:initial_magmoms:R:1 pbc="T T T"
Si      -1.40941080       0.78571557      -1.65654590       0.00000000
Si       1.45370331      -1.00007568      -1.53969612       0.00000000
Si      -0.84445731      -1.88323477       1.20019641       0.00000000
Si       1.41929883       2.15689374       0.32979676       0.00000000
Si      -1.96507899      -0.14270040       2.35785176       0.00000000
Si       2.01872196       1.34654769      -1.91748969       0.00000000
Si      -0.03689685       2.35208052      -2.72756529       0.00000000
Si      -1.68340860      -0.90883539      -3.22545447       0.00000000
Si      -3.21437538       1.83172905      -0.72226562       0.00000000
Si       2.99791386      -2.26427090      -0.30938949       0.00000000
