10
Lattice="16.28999089631971 0.0 0.0 0.0 16.28999089631971 0.0 0.0 0.0 34.5300574570662" Properties=species:S:1:pos:R:3:initial_magmoms:R:1 pbc="T T T"
Si       0.91971711       1.70893503       1.37138099       0.00000000
Si      -1.78439031      -0.99885393       1.27986247       0.00000000
Si      -1.85870529       0.67746852      -1.48166457       0.00000000
Si       1.74599478      -1.83185937       0.05899015       0.00000000
Si      -0.38436255      -2.26869201       2.68825453       0.00000000
Si       2.36141469       0.45525663       2.68790577       0.00000000
Si       2.30092992      -0.12276144      -2.92878556       0.00000000
Si       3.10098069       1.61922600      -1.42313609       0.00000000
Si      -3.51644085      -1.37490858      -0.44548603       0.00000000
Si       1.94131188       3.27823218       0.02512270       0.00000000
