10
Lattice="16.28999089631971 0.0 0.0 0.0 16.28999089631971 0.0 0.0 0.0 34.5300574570662" Properties=species:S:1:pos:R:3:initial_magmoms:R:1 pbc="T T T"
Si      -1.35997065      -1.35400851      -1.35696296       0.00000000
Si       1.35705474      -1.35725022       1.35782621       0.00000000
Si       1.35738054       1.35827649      -1.35737732       0.00000000
Si      -1.35812988       1.35801585       1.35723920       0.00000000
Si      -2.71389771      -0.00213399      -2.71154334       0.00000000
Si       2.71401174      -0.00061902       2.71413309       0.00000000
Si      -2.71500543      -2.71413066       0.00013812       0.00000000
Si       2.71508688      -2.71415672      -0.00089778       0.00000000
Si      -0.00346977       2.71552671       2.71444386       0.00000000
Si      -2.71515204       2.71552671      -0.00013812       0.00000000
