10
Lattice="16.28999089631971 0.0 0.0 0.0 16.28999089631971 0.0 0.0 0.0 34.5300574570662" Properties=species:S:1:pos:R:3:initial_magmoms:R:1 pbc="T T T"
Si       1.43632188       1.06013691       1.39356484       0.00000000
Si       1.27708713      -1.38886911      -1.36020878       0.00000000
Si      -1.39204566       1.35042471      -1.36331649       0.00000000
Si      -1.41162624      -0.78916905       1.76065408       0.00000000
Si       0.77116860      -2.50312140       1.81010115       0.00000000
Si      -3.28818537       0.40371507       0.69046341       0.00000000
Si       2.67566508      -2.28558474       0.36270393       0.00000000
Si      -2.77615809      -0.23855076      -2.43637316       0.00000000
Si       0.89827947       3.24848664       1.62564148       0.00000000
Si      -0.50503887       0.14924898       3.72431049       0.00000000
