10
Lattice="16.28999089631971 0.0 0.0 0.0 16.28999089631971 0.0 0.0 0.0 34.5300574570662" Properties=species:S:1:pos:R:3:initial_magmoms:R:1 pbc="T T T"
Si      -1.02281652      -2.11400217      -0.12337596       0.00000000
Si      -1.50656436       1.47483144       1.18403633       0.00000000
Si       2.24595117      -0.36077463       0.85689838       0.00000000
Si       0.38050182       0.98523549      -2.22204497       0.00000000
Si       0.91854423      -1.20311424      -2.45412162       0.00000000
Si      -1.77531678       2.15163207      -2.30502074       0.00000000
Si       3.26585178       1.69041330       0.12327237       0.00000000
Si       0.91882116      -3.56653260      -0.13411482       0.00000000
Si       2.25996057       2.35115199      -1.97128755       0.00000000
Si      -0.25023069       3.49707204       1.52477913       0.00000000
