10
Lattice="16.28999089631971 0.0 0.0 0.0 16.28999089631971 0.0 0.0 0.0 34.5300574570662" Properties=species:S:1:pos:R:3:initial_magmoms:R:1 pbc="T T T"
Si      -1.35747828      -1.35775521      -1.35592705       0.00000000
Si       1.35811359       1.35542574      -1.35768809       0.00000000
Si      -1.35778779       1.35755973       1.35758450       0.00000000
Si       1.35764118      -1.35741312       1.35799886       0.00000000
Si      -0.00496845      -2.71246256      -2.71309719       0.00000000
Si       2.71637379      -0.00278559      -2.71061103       0.00000000
Si      -2.71195594      -0.00433314      -2.71686097       0.00000000
Si      -0.00099369       2.71437012       2.71530712       0.00000000
Si       2.71353933      -0.00244350       2.71641208       0.00000000
Si       2.71511946       2.71487511       0.00079419       0.00000000
