10
Lattice="16.28999089631971 0.0 0.0 0.0 16.28999089631971 0.0 0.0 0.0 34.5300574570662" Properties=species:S:1:pos:R:3:initial_magmoms:R:1 pbc="T T T"
Si       2.12525856       0.52639506      -0.97464595       0.00000000
Si      -0.95853618       1.97341947      -1.04463841       0.00000000
Si       0.68686785      -0.49933737       2.33533815       0.00000000
Si      -0.83821824      -1.84477734      -1.49446172       0.00000000
Si      -2.31792039      -2.02274559       0.40576293       0.00000000
Si      -0.56946582      -2.52157797       1.99459535       0.00000000
Si       3.00685707       1.40918274       1.01497708       0.00000000
Si       1.31760036      -3.01117392      -1.41148595       0.00000000
Si      -2.90582649       2.19647844       0.41974761       0.00000000
Si       3.19705911      -1.64525742      -1.16072853       0.00000000
