10
Lattice="16.28999089631971 0.0 0.0 0.0 16.28999089631971 0.0 0.0 0.0 34.5300574570662" Properties=species:S:1:pos:R:3:initial_magmoms:R:1 pbc="T T T"
Si       0.52554798      -0.53540343      -2.20916525       0.00000000
Si       1.99078461       0.70169175       1.11825654       0.00000000
Si      -1.84192659       1.47558078      -0.39996188       0.00000000
Si      -0.70718148      -1.94364135       1.31676995       0.00000000
Si      -2.66703138       1.26478818       1.76327837       0.00000000
Si       2.81766501      -1.42353423       1.62902543       0.00000000
Si       2.33160399       0.88102836      -2.53858218       0.00000000
Si      -2.95090092       0.07983729      -2.05087938       0.00000000
Si       1.55947428      -2.65323375      -1.94338725       0.00000000
Si      -2.83568175      -1.14359058       2.14431777       0.00000000
