10
Lattice="16.28999089631971 0.0 0.0 0.0 16.28999089631971 0.0 0.0 0.0 34.5300574570662" Properties=species:S:1:pos:R:3:initial_magmoms:R:1 pbc="T T T"
Si       1.35768122       1.35819504       1.35717014       0.00000000
Si      -1.35764905       1.35679410      -1.35927647       0.00000000
Si      -1.35781195      -1.36027202       1.35616876       0.00000000
Si       1.35771543      -1.35859414      -1.35879305       0.00000000
Si       2.71133949       0.00198738       2.71724080       0.00000000
Si      -2.71431283       2.71474479      -0.00051795       0.00000000
Si       2.71492329       2.71453302      -0.00169197       0.00000000
Si       2.71476039      -2.71506149      -0.00155385       0.00000000
Si      -0.00034996      -2.71245509       2.71775875       0.00000000
Si       2.71523280      -0.00078192      -2.71520353       0.00000000
