10
Lattice="16.28999089631971 0.0 0.0 0.0 16.28999089631971 0.0 0.0 0.0 34.5300574570662" Properties=species:S:1:pos:R:3:initial_magmoms:R:1 pbc="T T T"
Si       0.54537291      -1.92544542       1.32371049       0.00000000
Si       1.21885038       1.92810069       0.78904678       0.00000000
Si      -2.26196424       0.89420697      -0.13960510       0.00000000
Si       0.67694724      -0.86297904      -2.20861277       0.00000000
Si      -0.61429590      -0.26643924       2.77196928       0.00000000
Si      -1.51052283       3.00535839      -0.98210444       0.00000000
Si      -2.36499849       1.48458915       2.34856317       0.00000000
Si      -0.25467786      -3.66743286      -0.18193897       0.00000000
Si       1.50382764      -2.98820502      -1.69784387       0.00000000
Si      -1.31383737      -1.56467079      -3.32686931       0.00000000
