10
Lattice="16.28999089631971 0.0 0.0 0.0 16.28999089631971 0.0 0.0 0.0 34.5300574570662" Properties=species:S:1:pos:R:3:initial_magmoms:R:1 pbc="T T T"
Si       1.49327172      -1.11433374       1.44276329       0.00000000
Si       1.15017174       1.55735658      -1.39744399       0.00000000
Si      -1.23878934       1.58392557       1.41104742       0.00000000
Si      -0.67435713      -1.96077843      -1.61950691       0.00000000
Si       2.73430908      -2.55215430       0.05150852       0.00000000
Si       0.13991481      -2.47186089       2.80522689       0.00000000
Si      -0.58044528       2.75521959      -2.52091456       0.00000000
Si      -2.62492173      -2.75182083      -0.21799183       0.00000000
Si      -2.57684994       0.24648399       2.80104875       0.00000000
Si      -2.75822280       2.86538235      -0.05208517       0.00000000
