10
Lattice="16.28999089631971 0.0 0.0 0.0 16.28999089631971 0.0 0.0 0.0 34.5300574570662" Properties=species:S:1:pos:R:3:initial_magmoms:R:1 pbc="T T T"
Si       1.36546038       1.35177678      -1.36286760       0.00000000
Si      -1.35013149      -1.36708938      -1.36317837       0.00000000
Si      -1.40675553       1.27260738       1.40078162       0.00000000
Si       1.43122311      -1.27203723       1.40288796       0.00000000
Si       2.69899236       2.70059597       0.01298331       0.00000000
Si      -2.69640225      -2.71995759      -0.00490327       0.00000000
Si       0.00560376       2.70725858      -2.72055569       0.00000000
Si      -2.70888039      -0.00605988      -2.72021039       0.00000000
Si      -2.71715571       2.71500121       0.01557306       0.00000000
Si       2.72583828      -2.71178001       0.00904688       0.00000000
