10
Lattice="16.28999089631971 0.0 0.0 0.0 16.28999089631971 0.0 0.0 0.0 34.5300574570662" Properties=species:S:1:pos:R:3:initial_magmoms:R:1 pbc="T T T"
Si      -1.05134031      -1.81721466       1.08800819       0.00000000
Si      -1.43122311       1.27203723      -1.40288796       0.00000000
Si       1.29461517      -1.43974278      -1.39384108       0.00000000
Si       1.33193556       1.20686094       1.66604167       0.00000000
Si       2.54661570       2.60087769       0.05883925       0.00000000
Si      -2.60609049      -0.63897525       2.55695218       0.00000000
Si      -2.83797864       2.54464461      -0.00210633       0.00000000
Si      -0.06576273       2.62381401      -2.76575556       0.00000000
Si       2.64490956      -0.09461232      -2.76554838       0.00000000
Si       2.54412333      -2.88606672       0.02852184       0.00000000
