10
Lattice="16.28999089631971 0.0 0.0 0.0 16.28999089631971 0.0 0.0 0.0 34.5300574570662" Properties=species:S:1:pos:R:3:initial_magmoms:R:1 pbc="T T T"
Si       1.07592192       0.67085478       1.95440234       0.00000000
Si       1.55475018      -1.17823941      -1.46894400       0.00000000
Si      -1.40581071       1.78883748      -1.05938275       0.00000000
Si      -0.21222612      -2.22172794      -2.63429956       0.00000000
Si       2.24236737       2.76755697       0.68777007       0.00000000
Si      -0.87136839       0.89391375       3.41878837       0.00000000
Si       1.19623986      -3.14734203       1.50457903       0.00000000
Si       2.60609049       0.63897525      -2.55695218       0.00000000
Si      -2.79588528       0.48482298      -2.46962562       0.00000000
Si       2.03445810      -1.30256469       2.99904076       0.00000000
