10
Lattice="16.28999089631971 0.0 0.0 0.0 16.28999089631971 0.0 0.0 0.0 34.5300574570662" Properties=species:S:1:pos:R:3:initial_magmoms:R:1 pbc="T T T"
Si      -2.09639268      -0.82896552       0.71011103       0.00000000
Si       0.00514764       2.23658442      -0.80016547       0.00000000
Si       0.81065556      -1.54543230      -1.69121410       0.00000000
Si       1.41024159      -0.04183272       1.97943665       0.00000000
Si       2.27162421       2.19372543      -1.73700098       0.00000000
Si      -0.51515496       3.54430068       1.17219252       0.00000000
Si      -2.93861826       0.74380140       2.24949638       0.00000000
Si      -1.77552855      -3.03355638       1.57892229       0.00000000
Si       3.67497513       0.43978113       1.39587835       0.00000000
Si       1.84156821      -2.21076477       2.75480952       0.00000000
