10
Lattice="16.28999089631971 0.0 0.0 0.0 16.28999089631971 0.0 0.0 0.0 34.5300574570662" Properties=species:S:1:pos:R:3:initial_magmoms:R:1 pbc="T T T"
Si       1.36477035       1.34511417       1.39815388       0.00000000
Si      -1.35384561      -1.36523069       1.39528789       0.00000000
Si      -1.30756572       1.41595938      -1.52662994       0.00000000
Si       1.40910196      -1.43138764      -1.45013892       0.00000000
Si      -2.71107954       2.70255987       0.01032449       0.00000000
Si      -2.70132183      -2.72144717       0.00778999       0.00000000
Si       2.72178926       2.70539433       0.02143282       0.00000000
Si       2.72389067      -2.72999942       0.04056939       0.00000000
Si       0.00444717       2.70679527       2.75694694       0.00000000
Si      -2.71090035      -0.00733050       2.75722318       0.00000000
