10
Lattice="16.28999089631971 0.0 0.0 0.0 16.28999089631971 0.0 0.0 0.0 34.5300574570662" Properties=species:S:1:pos:R:3:initial_magmoms:R:1 pbc="T T T"
Si      -1.05235029      -1.71063638      -1.29156299       0.00000000
Si      -1.07561241       1.49169159       1.53116719       0.00000000
Si       1.77068951       1.11816189      -1.24339353       0.00000000
Si       2.09948682      -0.85671228       1.08745571       0.00000000
Si       0.27352539      -1.04678237       2.58164119       0.00000000
Si      -2.47419036       2.38840722      -0.19174552       0.00000000
Si       0.18533133       3.37344723       0.79944034       0.00000000
Si      -2.33119674      -0.33888087      -2.74030689       0.00000000
Si       0.41661675       2.38308039      -2.76043793       0.00000000
Si      -2.26703043      -3.10465313       0.31563943       0.00000000
