10
Lattice="16.28999089631971 0.0 0.0 0.0 16.28999089631971 0.0 0.0 0.0 34.5300574570662" Properties=species:S:1:pos:R:3:initial_magmoms:R:1 pbc="T T T"
Si       0.68007492      -1.73371442      -1.38261880       0.00000000
Si       1.39009086      -0.27287379       1.87463787       0.00000000
Si      -1.91619270      -0.62715101       1.21238552       0.00000000
Si       0.02870298       2.14956813      -0.95990160       0.00000000
Si       0.40558842      -3.53198381       0.06208508       0.00000000
Si      -1.98206946       1.06750651       2.77014088       0.00000000
Si       1.54212543      -2.62326245       1.92284185       0.00000000
Si       0.25329321       0.95173348       3.52407057       0.00000000
Si      -0.99776250      -1.77803951      -3.07079426       0.00000000
Si       3.05277436      -1.35019895      -1.64104190       0.00000000
