10
Lattice="16.28999089631971 0.0 0.0 0.0 16.28999089631971 0.0 0.0 0.0 34.5300574570662" Properties=species:S:1:pos:R:3:initial_magmoms:R:1 pbc="T T T"
Si      -1.35847197       1.35518139       1.36138281       0.00000000
Si       1.35624024      -1.35922131       1.36003613       0.00000000
Si      -1.36010097      -1.35974259      -1.37158990       0.00000000
Si       1.35606105       1.35066906      -1.38686255       0.00000000
Si       2.71147050       2.71347417      -0.00210633       0.00000000
Si       2.71329498      -2.71712150      -0.00189915       0.00000000
Si      -0.00089595       2.71290402       2.71831123       0.00000000
Si       2.71350675      -0.00262269       2.71782781       0.00000000
Si      -2.71761183       2.71389771       0.00158838       0.00000000
Si      -2.71547784      -2.71794252      -0.00010359       0.00000000
