10
Lattice="16.28999089631971 0.0 0.0 0.0 16.28999089631971 0.0 0.0 0.0 34.5300574570662" Properties=species:S:1:pos:R:3:initial_magmoms:R:1 pbc="T T T"
Si      -1.97594442       0.55806282      -1.13900911       0.00000000
Si       1.90697812       1.32356250      -0.41498246       0.00000000
Si       1.24349293      -2.01173355      -0.21070253       0.00000000
Si      -0.47039004       0.96190821       2.23861941       0.00000000
Si      -1.76968044       2.48412726       0.24402405       0.00000000
Si       1.64205873       0.08729811       3.04196164       0.00000000
Si      -3.45657510      -0.79532667       0.09972286       0.00000000
Si       2.20983039      -1.95286149       1.99870443       0.00000000
Si       3.17036699       1.15246863       1.59957128       0.00000000
Si      -2.43721206      -2.85464331       0.89584831       0.00000000
