10
Lattice="16.28999089631971 0.0 0.0 0.0 16.28999089631971 0.0 0.0 0.0 34.5300574570662" Properties=species:S:1:pos:R:3:initial_magmoms:R:1 pbc="T T T"
Si       1.48689974       1.12963005       1.45740546       0.00000000
Si      -1.25247294      -1.55478276       1.34318342       0.00000000
Si      -1.43943327       1.32002757      -1.56072494       0.00000000
Si       0.90103804       0.62006256      -2.98964858       0.00000000
Si      -2.88893376      -1.01553489      -1.64908741       0.00000000
Si      -1.14759792      -0.48290076      -3.41485194       0.00000000
Si       0.06742089       2.45206854       2.88529320       0.00000000
Si      -2.78839188       2.63239884       0.05980609       0.00000000
Si      -2.65598676      -0.26818227       2.88013786       0.00000000
Si       3.19379201       2.27957373       0.16536454       0.00000000
