10
Lattice="16.28999089631971 0.0 0.0 0.0 16.28999089631971 0.0 0.0 0.0 34.5300574570662" Properties=species:S:1:pos:R:3:initial_magmoms:R:1 pbc="T T T"
Si       1.20112344      -1.37826432       1.54301446       0.00000000
Si      -1.65468933      -1.19793402      -1.28247264       0.00000000
Si       1.68132089       1.06394877      -1.49421107       0.00000000
Si      -1.50917076       1.32774903       1.54025896       0.00000000
Si       2.49397524       2.65082283       0.10732293       0.00000000
Si       2.62060229      -2.70070281       0.11512673       0.00000000
Si      -0.30573072      -2.51030529      -2.90300367       0.00000000
Si       2.55020832      -0.02393001       2.92372030       0.00000000
Si       0.56229822       1.74944826      -3.47748056       0.00000000
Si      -2.99739258       2.61332325       0.17438725       0.00000000
