10
Lattice="16.28999089631971 0.0 0.0 0.0 16.28999089631971 0.0 0.0 0.0 34.5300574570662" Properties=species:S:1:pos:R:3:initial_magmoms:R:1 pbc="T T T"
Si      -1.56897135      -1.23922917       1.25177709       0.00000000
Si       1.37070576       1.57167549       1.16337319       0.00000000
Si      -1.39378869      -0.20434176      -1.97875472       0.00000000
Si       0.93631662      -0.01379763      -2.30254325       0.00000000
Si      -0.08074953      -2.52480339       2.61764881       0.00000000
Si       2.61361647       0.18756306       2.63496909       0.00000000
Si       1.99071945      -2.10310416      -2.40009072       0.00000000
Si      -2.39153490       1.84642263      -2.25599671       0.00000000
Si      -2.81000871       0.19859139       2.64303187       0.00000000
Si      -0.08410527       2.91491631       2.61271446       0.00000000
