10
Lattice="16.28999089631971 0.0 0.0 0.0 16.28999089631971 0.0 0.0 0.0 34.5300574570662" Properties=species:S:1:pos:R:3:initial_magmoms:R:1 pbc="T T T"
Si      -1.35746199       1.35218307      -1.36158999       0.00000000
Si       1.35903627      -1.36060596      -1.36155546       0.00000000
Si       1.34902933       1.36048283       1.37754288       0.00000000
Si      -1.37424069      -1.35145098       1.36583719       0.00000000
Si       2.69227178      -0.10031382       2.69010016       0.00000000
Si       2.71168946       2.71444247      -0.00051795       0.00000000
Si      -2.71557558       2.71178720       0.00044889       0.00000000
Si       0.00034996       2.71245509      -2.71775875       0.00000000
Si      -2.71480995      -0.00287981      -2.71841482       0.00000000
Si       2.71511036      -0.00260640      -2.71931260       0.00000000
