10
Lattice="16.28999089631971 0.0 0.0 0.0 16.28999089631971 0.0 0.0 0.0 34.5300574570662" Properties=species:S:1:pos:R:3:initial_magmoms:R:1 pbc="T T T"
Si      -1.24349293       2.01173355       0.21070253       0.00000000
Si      -0.86170420      -1.93639230      -1.08576373       0.00000000
Si       0.96633746       0.05887206       2.20940696       0.00000000
Si       1.79448522       0.19287360      -1.60236821       0.00000000
Si       0.66348518       3.33529605      -0.20427993       0.00000000
Si       3.31836585      -0.99326646      -0.19616537       0.00000000
Si      -0.00113053      -1.71598860       3.31150342       0.00000000
Si       2.16040749       2.51203203      -1.81963145       0.00000000
Si       0.53606643      -3.72735400      -0.32976223       0.00000000
Si       3.29222040      -0.03771135       1.90968589       0.00000000
