10
Lattice="16.28999089631971 0.0 0.0 0.0 16.28999089631971 0.0 0.0 0.0 34.5300574570662" Properties=species:S:1:pos:R:3:initial_magmoms:R:1 pbc="T T T"
Si      -1.20391245      -0.95102649      -1.84718646       0.00000000
Si       2.36088919      -0.44147529      -0.03922617       0.00000000
Si      -0.33396129       2.38269987       0.14758155       0.00000000
Si      -0.26498943      -1.07869122       2.22249386       0.00000000
Si       0.17376543      -0.32171121      -3.60639028       0.00000000
Si       2.92637048       1.13629266       1.84400969       0.00000000
Si       1.81751670       3.07425599       1.00997021       0.00000000
Si       2.52185231      -2.77078239       0.48317936       0.00000000
Si      -2.24266059       2.62221500       1.69480523       0.00000000
Si      -2.59509474      -1.26923535       2.54628239       0.00000000
