10
Lattice="16.28999089631971 0.0 0.0 0.0 16.28999089631971 0.0 0.0 0.0 34.5300574570662" Properties=species:S:1:pos:R:3:initial_magmoms:R:1 pbc="T T T"
Si      -0.96746799      -1.77486066       1.10209646       0.00000000
Si       2.32588294      -0.09658341      -0.29972107       0.00000000
Si      -0.56777166       2.04015960       1.04325721       0.00000000
Si      -0.96633746      -0.05887206      -2.20940696       0.00000000
Si       0.96053659       3.10533012      -0.39913316       0.00000000
Si       2.35202839      -1.05213852      -2.40557233       0.00000000
Si      -2.20983039       1.95286149      -1.99870443       0.00000000
Si      -3.29520051      -1.41907077       0.93503995       0.00000000
Si       3.04526563       2.10110049      -0.86929468       0.00000000
Si      -0.64910274      -3.77609693      -0.13953604       0.00000000
