10
Lattice="16.28999089631971 0.0 0.0 0.0 16.28999089631971 0.0 0.0 0.0 34.5300574570662" Properties=species:S:1:pos:R:3:initial_magmoms:R:1 pbc="T T T"
Si      -1.11902267       0.68549949      -1.98326949       0.00000000
Si       0.81265434       1.58687406       1.60153400       0.00000000
Si      -1.68132089      -1.06394877       1.49421107       0.00000000
Si       2.35463153      -0.50981184      -0.97702852       0.00000000
Si       2.64617366      -2.61470790       0.31729688       0.00000000
Si       2.23133252       0.28592208       3.04283322       0.00000000
Si       1.70431844       3.36132747       0.37712203       0.00000000
Si       0.61341624       1.08271485      -3.62503652       0.00000000
Si      -0.48019745      -2.44221309       3.03722554       0.00000000
Si      -2.25267635      -1.27834146      -3.02832226       0.00000000
