10
Lattice="16.28999089631971 0.0 0.0 0.0 16.28999089631971 0.0 0.0 0.0 34.5300574570662" Properties=species:S:1:pos:R:3:initial_magmoms:R:1 pbc="T T T"
Si       1.35970349       1.35156501      -1.35789527       0.00000000
Si       1.35432779      -1.35581670       1.35934553       0.00000000
Si      -1.35957710       1.35751086       1.35944912       0.00000000
Si      -1.36778726      -1.36723599      -1.36842004       0.00000000
Si       2.59184651      -0.09255978      -2.76315199       0.00000000
Si       2.71064948      -2.71156824      -0.00058701       0.00000000
Si       2.70757067       2.71854918       0.00345301       0.00000000
Si       2.71105673       0.00177561       2.71765516       0.00000000
Si      -0.00267645      -2.71339272       2.71737892       0.00000000
Si      -2.72088353      -2.70992295       0.00024171       0.00000000
