10
Lattice="16.28999089631971 0.0 0.0 0.0 16.28999089631971 0.0 0.0 0.0 34.51877397758722" Properties=species:S:1:pos:R:3:initial_magmoms:R:1 pbc="T T T"
Si       0.24483381      -1.90045656       1.34557708       0.00000000
Si      -0.87605081      -0.81738333      -2.02224898       0.00000000
Si       2.20589406       0.84277944      -0.20908033       0.00000000
Si      -1.28708009       1.67811435       1.12023840       0.00000000
Si       0.02345923       3.61501164       0.70266456       0.00000000
Si      -1.66451939       1.04374917      -3.14535244       0.00000000
Si       2.17088685       2.84270274       1.13580637       0.00000000
Si      -2.58246089      -2.34295812      -1.45776316       0.00000000
Si       2.43066348       1.49907096      -2.50040331       0.00000000
Si      -1.34440460       1.06199397       3.41283857       0.00000000
