10
Lattice="16.28999089631971 0.0 0.0 0.0 16.28999089631971 0.0 0.0 0.0 34.51877397758722" Properties=species:S:1:pos:R:3:initial_magmoms:R:1 pbc="T T T"
Si      -1.35721764      -1.35788553      -1.35655406       0.00000000
Si      -1.35754344       1.35728280       1.35859067       0.00000000
Si       1.35767376      -1.35795069       1.35786577       0.00000000
Si       1.35928647       1.35755973      -1.35758962       0.00000000
Si       0.00073305      -2.71406061       2.71421271       0.00000000
Si      -2.71482298       2.71432125       0.00024163       0.00000000
Si       2.71500543       2.71476108       0.00003452       0.00000000
Si       2.71479366      -0.00019548       2.71542087       0.00000000
Si       2.71502172      -2.71544526       0.00010356       0.00000000
Si      -2.71504941      -2.71546155       0.00024163       0.00000000
