10
Lattice="16.28999089631971 0.0 0.0 0.0 16.28999089631971 0.0 0.0 0.0 34.51877397758722" Properties=species:S:1:pos:R:3:initial_magmoms:R:1 pbc="T T T"
Si       0.27694596      -0.65688189       2.22960338       0.00000000
Si       0.48783630      -1.76140905      -1.49987609       0.00000000
Si       1.64486451       1.62983405      -0.54132372       0.00000000
Si      -2.24920202       0.77072714      -0.15181365       0.00000000
Si       0.09747415      -0.87091620      -3.64963749       0.00000000
Si       0.44293618       3.70333928      -0.74885070       0.00000000
Si       0.08102776       1.22893715       3.61649945       0.00000000
Si      -1.03359335      -2.59377918       2.64717722       0.00000000
Si      -3.32691584       0.33446954       1.94920722       0.00000000
Si       2.42437359      -1.42919079       2.66274519       0.00000000
