10
Lattice="16.28999089631971 0.0 0.0 0.0 16.28999089631971 0.0 0.0 0.0 34.51877397758722" Properties=species:S:1:pos:R:3:initial_magmoms:R:1 pbc="T T T"
Si      -1.50257331       1.07735544      -1.46515018       0.00000000
Si       1.25867943      -1.80048483      -1.01561194       0.00000000
Si       0.87350238       2.05636815       1.04902613       0.00000000
Si       0.24083136       2.17109862      -2.77310178       0.00000000
Si       2.18768184      -2.74838364       0.95772392       0.00000000
Si       2.78865252      -0.55951263      -2.44741696       0.00000000
Si      -2.46637116      -0.59688189      -2.76844174       0.00000000
Si       1.51715286       3.37926276      -1.14167457       0.00000000
Si      -3.80026152       0.92571183      -0.10542039       0.00000000
Si      -0.92988207       3.31612272       2.02190380       0.00000000
