10
Lattice="16.28999089631971 0.0 0.0 0.0 16.28999089631971 0.0 0.0 0.0 34.51877397758722" Properties=species:S:1:pos:R:3:initial_magmoms:R:1 pbc="T T T"
Si      -1.56416091       0.92470185       1.52107063       0.00000000
Si       1.00892115      -1.88432294       1.04253659       0.00000000
Si      -1.39919697      -0.48777147      -1.86049392       0.00000000
Si       1.86059493       1.42076493      -0.42123283       0.00000000
Si      -2.60112530       1.58573376      -2.06802090       0.00000000
Si      -2.97251612       2.26297422       0.18087848       0.00000000
Si      -0.61968789      -3.54679631       1.34357499       0.00000000
Si       2.36566638      -1.01258640       2.86095210       0.00000000
Si      -2.96303371      -0.88866837       2.29732925       0.00000000
Si       0.01014867      -0.85517613      -3.77342189       0.00000000
