10
Lattice="16.28999089631971 0.0 0.0 0.0 16.28999089631971 0.0 0.0 0.0 34.51877397758722" Properties=species:S:1:pos:R:3:initial_magmoms:R:1 pbc="T T T"
Si       0.58308426      -1.84533120      -1.39714816       0.00000000
Si      -0.77998149      -1.35933534       1.86025229       0.00000000
Si       1.80413379       1.63549971       0.20431674       0.00000000
Si      -1.86427647       1.33465599      -0.85340813       0.00000000
Si      -1.54096884      -2.83647996      -1.57567936       0.00000000
Si       3.44064348       0.68136183      -1.23746422       0.00000000
Si      -3.01112505      -0.56150001       2.25649352       0.00000000
Si      -2.15014968       3.04880382       0.80421885       0.00000000
Si       0.49034529      -0.60575994       3.74245853       0.00000000
Si      -1.72551825       1.85096754      -3.13637756       0.00000000
