10
Lattice="16.28999089631971 0.0 0.0 0.0 16.28999089631971 0.0 0.0 0.0 34.51877397758722" Properties=species:S:1:pos:R:3:initial_magmoms:R:1 pbc="T T T"
Si       1.70277741       1.00059696      -1.49381601       0.00000000
Si      -1.37741724       1.29153636       1.60781290       0.00000000
Si      -1.97120403      -0.78154533      -1.33972411       0.00000000
Si       1.31989725      -1.43876538       1.59202055       0.00000000
Si       2.58519042       2.54360205       0.12253826       0.00000000
Si      -2.58921405       2.80368819       0.16750590       0.00000000
Si      -1.23271317       0.31102497      -3.65103347       0.00000000
Si      -2.83507902      -2.68599294       0.14640456       0.00000000
Si      -3.57137073       1.14329736      -1.20372007       0.00000000
Si      -0.04062726       2.63182869       2.99633481       0.00000000
