10
Lattice="16.28999089631971 0.0 0.0 0.0 16.28999089631971 0.0 0.0 0.0 34.51877397758722" Properties=species:S:1:pos:R:3:initial_magmoms:R:1 pbc="T T T"
Si      -1.35071793      -1.34661285       1.36207706       0.00000000
Si      -1.35278676       1.35681039      -1.35983334       0.00000000
Si       1.36150191      -1.35905841      -1.35665761       0.00000000
Si       1.35461124       1.36386396       1.37115551       0.00000000
Si       0.04885371      -2.64842820       2.69015312       0.00000000
Si      -2.59822242       0.13279608       2.75663631       0.00000000
Si      -2.71117728       2.71298547      -0.00300314       0.00000000
Si      -2.71096551      -0.00141723      -2.71497213       0.00000000
Si       0.00410508       2.71346686      -2.71542087       0.00000000
Si      -2.71467963      -2.71437012       0.00279602       0.00000000
