10
Lattice="16.28999089631971 0.0 0.0 0.0 16.28999089631971 0.0 0.0 0.0 34.51877397758722" Properties=species:S:1:pos:R:3:initial_magmoms:R:1 pbc="T T T"
Si       1.35689184       1.35665647      -1.35558753       0.00000000
Si       1.35278676      -1.35681039       1.35983334       0.00000000
Si      -1.35839052       1.35617508       1.35683021       0.00000000
Si      -1.35817875      -1.35822762      -1.35513879       0.00000000
Si      -0.01202202       2.71376154       2.70454745       0.00000000
Si       0.00206883      -2.70342324       2.72191041       0.00000000
Si       2.71383255       2.71161126       0.00303765       0.00000000
Si      -0.00057015       2.71378598      -2.71224514       0.00000000
Si       2.71461447      -0.00114030      -2.71241774       0.00000000
Si      -2.71479366       2.71273527       0.00124268       0.00000000
