10
Lattice="16.28999089631971 0.0 0.0 0.0 16.28999089631971 0.0 0.0 0.0 34.51877397758722" Properties=species:S:1:pos:R:3:initial_magmoms:R:1 pbc="T T T"
Si      -2.13149763      -0.64562157      -0.79728057       0.00000000
Si       0.16175970       1.33845712      -1.96070198       0.00000000
Si      -0.23723127       1.09280718       2.11054806       0.00000000
Si       1.94509116      -1.38890169      -0.15395382       0.00000000
Si      -3.33440010       1.26470088       0.18329479       0.00000000
Si      -0.44183367      -0.77875974       3.53821083       0.00000000
Si       3.09835800      -1.12000266       1.88441544       0.00000000
Si       1.26047133      -0.40096206      -3.56151101       0.00000000
Si      -2.38790223      -2.99692017      -0.19026759       0.00000000
Si      -2.31146955       2.31947513       2.10360978       0.00000000
