10
Lattice="16.28999089631971 0.0 0.0 0.0 16.28999089631971 0.0 0.0 0.0 34.51877397758722" Properties=species:S:1:pos:R:3:initial_magmoms:R:1 pbc="T T T"
Si       0.59162022       0.69877584       2.16098001       0.00000000
Si       0.20460240       1.87156692      -1.42766277       0.00000000
Si      -2.23969581      -0.93701709       0.04618615       0.00000000
Si       1.93971546      -1.50956172      -0.29240870       0.00000000
Si       0.44183367       0.77875974      -3.53821083       0.00000000
Si       1.00463688      -1.41037191       3.21794546       0.00000000
Si      -2.46446523      -1.59330861       2.33750912       0.00000000
Si      -2.08645578      -2.81193093      -1.40256761       0.00000000
Si      -1.86963588       3.09823487      -1.43460105       0.00000000
Si       3.54019167      -0.34124292      -1.65379539       0.00000000
