10
Lattice="16.28999089631971 0.0 0.0 0.0 16.28999089631971 0.0 0.0 0.0 34.51877397758722" Properties=species:S:1:pos:R:3:initial_magmoms:R:1 pbc="T T T"
Si      -1.70215839      -0.87861744       1.35037519       0.00000000
Si      -1.30675122       1.40354640      -1.40118686       0.00000000
Si       1.76596632       0.95672799       1.28306355       0.00000000
Si       1.38720753      -1.32900336      -1.42403830       0.00000000
Si      -2.62104471      -2.52942421      -0.08805744       0.00000000
Si      -0.74484396      -2.85236990       2.32073299       0.00000000
Si       2.65502565      -2.69188082       0.00793932       0.00000000
Si       3.45067812      -0.87873147       1.31589092       0.00000000
Si      -2.70096345       2.66921424       0.19351236       0.00000000
Si      -2.66994729       0.03714120      -2.78445846       0.00000000
