10
Lattice="16.28999089631971 0.0 0.0 0.0 16.28999089631971 0.0 0.0 0.0 34.51877397758722" Properties=species:S:1:pos:R:3:initial_magmoms:R:1 pbc="T T T"
Si      -1.68715530      -1.61212519       0.29655095       0.00000000
Si       1.34449515       0.81810009       1.77036535       0.00000000
Si      -1.11457809       2.01816810      -0.72423880       0.00000000
Si       1.34760654      -1.15738821      -1.69207673       0.00000000
Si      -1.97571636      -2.00148877      -1.99049170       0.00000000
Si       1.95191667       3.02757795       1.11965158       0.00000000
Si       1.79683587       0.31964238      -3.46796508       0.00000000
Si       0.26156853       3.89651913      -0.41671087       0.00000000
Si      -1.31002551       2.10297384      -3.05021865       0.00000000
Si       3.23538948      -0.61369317       2.15942667       0.00000000
