10
Lattice="16.28999089631971 0.0 0.0 0.0 16.28999089631971 0.0 0.0 0.0 34.51877397758722" Properties=species:S:1:pos:R:3:initial_magmoms:R:1 pbc="T T T"
Si       1.35358497       1.34467434      -1.38282286       0.00000000
Si      -1.36319607      -1.36640520      -1.38327160       0.00000000
Si       1.30675122      -1.40354640       1.40118686       0.00000000
Si      -1.39421223       1.26566784       1.59469921       0.00000000
Si      -0.39540717      -2.28216384       2.75156205       0.00000000
Si      -2.33860869      -0.60918084       2.81321261       0.00000000
Si      -2.70037701       2.67807600      -0.01256484       0.00000000
Si       2.69853624       2.72155401       0.00345188       0.00000000
Si       2.69395875      -2.73254976      -0.02285144       0.00000000
Si      -0.00130320       2.70347211      -2.74424406       0.00000000
