10
Lattice="16.28999089631971 0.0 0.0 0.0 16.28999089631971 0.0 0.0 0.0 34.51877397758722" Properties=species:S:1:pos:R:3:initial_magmoms:R:1 pbc="T T T"
Si       0.92900241      -0.94789881       1.97333585       0.00000000
Si      -1.25867943       1.80048483       1.01561194       0.00000000
Si       1.52997309       1.24097220      -1.43180503       0.00000000
Si      -1.09688715      -1.60656867      -1.46628930       0.00000000
Si       3.01744557       0.41901138       2.17744548       0.00000000
Si      -2.40305193      -0.19416051      -3.07355335       0.00000000
Si       0.30214692       2.53022796      -3.07427825       0.00000000
Si       2.39972877       3.19657041      -0.27166290       0.00000000
Si      -2.76125274       2.87784027      -0.44953824       0.00000000
Si      -2.04128361      -3.48141735      -0.24777590       0.00000000
