10
Lattice="16.28999089631971 0.0 0.0 0.0 16.28999089631971 0.0 0.0 0.0 34.51877397758722" Properties=species:S:1:pos:R:3:initial_magmoms:R:1 pbc="T T T"
Si       1.26762264      -1.30924359       1.43688964       0.00000000
Si       1.75811454       1.02796416      -1.14443055       0.00000000
Si      -1.46254878       1.43684316       1.38286773       0.00000000
Si      -1.43602866      -1.13362110      -1.73420833       0.00000000
Si       2.63984337      -2.54699037      -0.06242033       0.00000000
Si       0.77097312       2.34191556      -2.89221029       0.00000000
Si       2.60933220       0.08099388       2.78455856       0.00000000
Si      -0.10533114      -2.63599893       2.78535250       0.00000000
Si      -2.80613169      -2.65443921      -0.14506523       0.00000000
Si       3.55063356      -0.62957592      -1.52171064       0.00000000
