10
Lattice="16.28999089631971 0.0 0.0 0.0 16.28999089631971 0.0 0.0 0.0 34.51877397758722" Properties=species:S:1:pos:R:3:initial_magmoms:R:1 pbc="T T T"
Si      -1.35685926      -1.35692442       1.35710636       0.00000000
Si      -1.35711990       1.35729909      -1.35769318       0.00000000
Si       1.35759231       1.35755973       1.35700280       0.00000000
Si       1.35710361      -1.35742941      -1.35790029       0.00000000
Si       2.71450044      -0.00030951      -2.71517924       0.00000000
Si       2.71511946       2.71466334      -0.00034519       0.00000000
Si      -2.71494027       2.71492398      -0.00062134       0.00000000
Si      -2.71458189       0.00004887      -2.71528280       0.00000000
Si      -2.71388142      -0.00047241       2.71611125       0.00000000
Si       0.00009774       2.71523349      -2.71476502       0.00000000
