10
Lattice="16.28999089631971 0.0 0.0 0.0 16.28999089631971 0.0 0.0 0.0 34.51877397758722" Properties=species:S:1:pos:R:3:initial_magmoms:R:1 pbc="T T T"
Si      -1.80338445       1.25975457       0.97287767       0.00000000
Si      -0.87350238      -2.05636815      -1.04902613       0.00000000
Si       1.29202506       0.13589118       2.11741730       0.00000000
Si       0.64365048       1.32289461      -2.19070070       0.00000000
Si      -2.37607569      -0.97901271      -2.51417631       0.00000000
Si       2.78490582      -0.66028257      -2.33630097       0.00000000
Si      -0.31040595       3.51583812      -1.16873730       0.00000000
Si      -0.15959313      -0.98803737       3.62657894       0.00000000
Si      -1.93121208       0.62973882       3.26406257       0.00000000
Si      -0.63267102       0.11473047      -3.82212790       0.00000000
