10
Lattice="16.28999089631971 0.0 0.0 0.0 16.28999089631971 0.0 0.0 0.0 34.51877397758722" Properties=species:S:1:pos:R:3:initial_magmoms:R:1 pbc="T T T"
Si      -0.97145415      -0.24083136      -2.12618507       0.00000000
Si      -0.03109761      -2.20750677       0.84812675       0.00000000
Si       2.26152441       0.65518380      -0.23759285       0.00000000
Si      -1.51567047       1.18226304       1.47640331       0.00000000
Si      -1.44032922       2.07583470      -2.62653498       0.00000000
Si      -2.28524265      -2.48209101       1.41195672       0.00000000
Si       3.04306974       0.61128225       2.00181386       0.00000000
Si       2.15055693       2.93223258      -0.83797823       0.00000000
Si      -3.26256120      -0.34834536       1.79190508       0.00000000
Si      -0.30584475       1.48154292       3.46289082       0.00000000
