10
Lattice="16.28999089631971 0.0 0.0 0.0 16.28999089631971 0.0 0.0 0.0 34.51877397758722" Properties=species:S:1:pos:R:3:initial_magmoms:R:1 pbc="T T T"
Si      -1.35651717       1.35972141       1.36010949       0.00000000
Si       1.35887922      -1.35657895       1.36100698       0.00000000
Si      -1.35651717      -1.34967115      -1.37408615       0.00000000
Si       1.35264015       1.37234616      -1.37740686       0.00000000
Si       0.16529463      -2.54284849      -2.82385821       0.00000000
Si      -2.71155521       2.71548924       0.00103556       0.00000000
Si       2.71388142      -2.71470799       0.00497071       0.00000000
Si      -2.71526770      -2.71451251       0.00151883       0.00000000
Si       0.00048870      -2.71268803       2.71752652       0.00000000
Si      -2.71457049       0.00222358       2.71728489       0.00000000
