10
Lattice="16.28999089631971 0.0 0.0 0.0 16.28999089631971 0.0 0.0 0.0 34.51877397758722" Properties=species:S:1:pos:R:3:initial_magmoms:R:1 pbc="T T T"
Si       1.17610542      -1.46865753       1.38492850       0.00000000
Si       1.36897902       1.33550307      -1.36635739       0.00000000
Si      -1.34376210      -1.37937204      -1.36525279       0.00000000
Si      -1.42902396       1.32680421       1.45213660       0.00000000
Si      -0.59966748      -2.08533177       2.80831095       0.00000000
Si       2.72652246       2.68640019       0.02899579       0.00000000
Si      -2.71148679       2.70197343       0.00348640       0.00000000
Si       0.00949707       2.69309538      -2.72643237       0.00000000
Si      -2.70459612      -0.02094894      -2.72432672       0.00000000
Si      -2.69724933      -2.75167422       0.00569560       0.00000000
