10
Lattice="16.28999089631971 0.0 0.0 0.0 16.28999089631971 0.0 0.0 0.0 34.51877397758722" Properties=species:S:1:pos:R:3:initial_magmoms:R:1 pbc="T T T"
Si       1.87014087      -1.37987703      -0.30373086       0.00000000
Si      -1.15326684      -0.26889903      -2.03836926       0.00000000
Si      -1.60047621      -1.16831880       1.36138669       0.00000000
Si       0.57573747       2.20735920       0.78861635       0.00000000
Si       0.95454513       1.65385546       3.09626672       0.00000000
Si      -1.68081849      -3.23317404       0.16634606       0.00000000
Si       3.50207307       0.13939353      -1.12669341       0.00000000
Si      -1.55299086      -2.60315829      -2.12483884       0.00000000
Si       2.77996995      -1.62359172       1.85048347       0.00000000
Si      -3.09835800       1.12000266      -1.88441544       0.00000000
