10
Lattice="16.28999089631971 0.0 0.0 0.0 16.28999089631971 0.0 0.0 0.0 34.51877397758722" Properties=species:S:1:pos:R:3:initial_magmoms:R:1 pbc="T T T"
Si       1.50869835      -0.28857735       1.77726911       0.00000000
Si      -2.08218780      -1.14497523      -0.01128765       0.00000000
Si       1.46277684      -0.91681749      -1.66038848       0.00000000
Si      -0.36264798       2.36062969      -0.41460523       0.00000000
Si       3.24175887       0.61204788      -1.39466280       0.00000000
Si       3.36916296       0.86874570       0.95986408       0.00000000
Si      -2.91766932      -0.46154457      -2.14948526       0.00000000
Si      -1.31719311       0.70677423      -3.51087194       0.00000000
Si      -1.61331273      -3.46164129       0.48906226       0.00000000
Si       1.61966583      -2.56562613       2.37765448       0.00000000
