10
Lattice="16.28999089631971 0.0 0.0 0.0 16.28999089631971 0.0 0.0 0.0 34.51877397758722" Properties=species:S:1:pos:R:3:initial_magmoms:R:1 pbc="T T T"
Si      -1.77352488       1.63806864      -0.14359818       0.00000000
Si       1.59164703       0.76108509      -1.71427231       0.00000000
Si       0.20701332      -1.94490775       1.52379761       0.00000000
Si       1.22481252       1.09759414       1.92922084       0.00000000
Si      -0.84986559      -1.71078787      -1.71910494       0.00000000
Si       2.06298189      -2.90127736       0.46262087       0.00000000
Si       1.32318783       3.11764047      -1.59473373       0.00000000
Si      -3.77620119       0.35717780       0.19620482       0.00000000
Si       1.02172509      -3.23613460      -1.70885286       0.00000000
Si      -1.64983491       2.92634700       1.89763614       0.00000000
