10
Lattice="16.28999089631971 0.0 0.0 0.0 16.28999089631971 0.0 0.0 0.0 34.51877397758722" Properties=species:S:1:pos:R:3:initial_magmoms:R:1 pbc="T T T"
Si      -0.26845920       2.35655538       0.11953858       0.00000000
Si       1.97984166      -1.30513429       0.14566931       0.00000000
Si      -0.29870973      -0.50837506      -2.32780934       0.00000000
Si      -1.59164703      -0.76108509       1.71427231       0.00000000
Si       0.74968209      -2.64813076      -1.53915847       0.00000000
Si      -2.44151262      -2.47187296      -0.00483263       0.00000000
Si      -2.50765002      -1.31409379      -2.08541838       0.00000000
Si      -0.36683451       0.33650905       3.64349315       0.00000000
Si      -2.63019969       2.64542595       0.07342147       0.00000000
Si      -3.36517191       0.87698355       1.57067413       0.00000000
