10
Lattice="16.28999089631971 0.0 0.0 0.0 16.28999089631971 0.0 0.0 0.0 34.51877397758722" Properties=species:S:1:pos:R:3:initial_magmoms:R:1 pbc="T T T"
Si      -0.61436106       2.25022404       0.21864204       0.00000000
Si       2.24920202      -0.77072714       0.15181365       0.00000000
Si      -1.07771382      -0.43625760       2.10102087       0.00000000
Si      -1.22481252      -1.09759414      -1.92922084       0.00000000
Si      -1.01779920      -3.04250189      -0.40542323       0.00000000
Si      -2.87464743       1.82875287      -0.03158470       0.00000000
Si      -0.89039511      -2.78580407       1.94910366       0.00000000
Si       0.52812180       3.17604990      -1.53957270       0.00000000
Si       0.36683451      -0.33650905      -3.64349315       0.00000000
Si      -2.99833740       0.54047451      -2.07281902       0.00000000
