10
Lattice="16.28999089631971 0.0 0.0 0.0 16.28999089631971 0.0 0.0 0.0 34.51877397758722" Properties=species:S:1:pos:R:3:initial_magmoms:R:1 pbc="T T T"
Si       1.35544203       1.35493704       1.35665761       0.00000000
Si       1.35764118      -1.35742941      -1.35696828       0.00000000
Si      -1.35793440       1.35785295      -1.35724443       0.00000000
Si      -1.35764118      -1.35842310       1.35720991       0.00000000
Si       2.70966792       0.00338832       2.71517924       0.00000000
Si      -0.00136836      -2.71420722      -2.71421271       0.00000000
Si       2.71442535      -2.71412577       0.00058682       0.00000000
Si       2.71447388       2.71453302       0.00062134       0.00000000
Si      -2.71583622      -0.00138465      -2.71324619       0.00000000
Si      -0.00053757       2.71497285      -2.71452338       0.00000000
