10
Lattice="16.28999089631971 0.0 0.0 0.0 16.28999089631971 0.0 0.0 0.0 34.51877397758722" Properties=species:S:1:pos:R:3:initial_magmoms:R:1 pbc="T T T"
Si       1.37877813      -0.18482634       1.86101170       0.00000000
Si      -1.79913276      -1.37212299      -0.55975675       0.00000000
Si      -0.30449268       2.31948423       0.02519872       0.00000000
Si       1.04689314      -0.31416894      -2.10260874       0.00000000
Si      -2.39065524       0.11023443      -2.28828532       0.00000000
Si      -2.05698717       2.37096063      -1.51375264       0.00000000
Si       2.79890612       1.20176217      -1.82638935       0.00000000
Si       1.74731657       3.07240803      -0.82669058       0.00000000
Si       1.32054138      -2.66465304      -2.19915780       0.00000000
Si       1.73526849       2.12799528       2.48504245       0.00000000
