10
Lattice="16.28999089631971 0.0 0.0 0.0 16.28999089631971 0.0 0.0 0.0 34.51877397758722" Properties=species:S:1:pos:R:3:initial_magmoms:R:1 pbc="T T T"
Si      -1.25310825       1.37601630      -1.41911592       0.00000000
Si       1.34078103       1.35537687       1.36455896       0.00000000
Si      -1.37458278      -1.35267273       1.36566357       0.00000000
Si       1.38486177      -1.25327115      -1.56064642       0.00000000
Si      -2.22580044      -0.40570245      -2.56332555       0.00000000
Si      -0.43328142      -2.06324253      -2.94060564       0.00000000
Si       0.52427736       2.17658835      -2.89441950       0.00000000
Si       2.54122371       0.64982439      -2.76038302       0.00000000
Si       2.69199252      -2.70573642      -0.02632058       0.00000000
Si       2.69629939       0.00301365       2.72425423       0.00000000
