10
Lattice="16.28999089631971 0.0 0.0 0.0 16.28999089631971 0.0 0.0 0.0 34.51877397758722" Properties=species:S:1:pos:R:3:initial_magmoms:R:1 pbc="T T T"
Si      -1.72506213      -0.99680139       1.30902168       0.00000000
Si       0.08570169       2.40999147       0.49382586       0.00000000
Si       2.39796945      -0.50068944       0.29095891       0.00000000
Si      -0.78939711      -1.27050597      -2.05497280       0.00000000
Si      -3.74554341       0.06892299       0.62996798       0.00000000
Si      -1.54004031      -3.39102414       1.00770713       0.00000000
Si       1.12695849       2.74484871       2.66529958       0.00000000
Si       3.62749860       0.70824033      -1.53259990       0.00000000
Si      -1.93559409      -0.15990264       3.52236670       0.00000000
Si      -1.63494585      -3.50480979      -1.37464190       0.00000000
