10
Lattice="16.28999089631971 0.0 0.0 0.0 16.28999089631971 0.0 0.0 0.0 34.51877397758722" Properties=species:S:1:pos:R:3:initial_magmoms:R:1 pbc="T T T"
Si       1.35638882       1.35777426       1.35714088       0.00000000
Si      -1.35808134      -1.35762606       1.35700280       0.00000000
Si       1.35569161      -1.35896184      -1.35862518       0.00000000
Si      -1.35638718       1.35802838      -1.36090342       0.00000000
Si       2.71362764      -2.71398033      -0.00013808       0.00000000
Si       2.71465391      -0.00056877       2.71473050       0.00000000
Si       2.71444214       2.71527209      -0.00003452       0.00000000
Si      -0.00071673      -2.71531611       2.71490309       0.00000000
Si      -0.00137862       2.71571192       2.71490309       0.00000000
Si      -2.71612977      -0.00017041       2.71448887       0.00000000
