10
Lattice="16.28999089631971 0.0 0.0 0.0 16.28999089631971 0.0 0.0 0.0 34.51877397758722" Properties=species:S:1:pos:R:3:initial_magmoms:R:1 pbc="T T T"
Si      -0.75114656       2.02742082      -0.89890390       0.00000000
Si      -0.98432488       0.30463929       2.19232308       0.00000000
Si       1.50731370       0.08591346       1.97426786       0.00000000
Si       2.02714389      -1.13415867      -1.23539309       0.00000000
Si      -1.69319465       0.08228079      -2.18155322       0.00000000
Si       2.36325546       1.58333913       0.22178325       0.00000000
Si      -2.63379068      -1.91345598      -1.00021655       0.00000000
Si       2.96300439      -1.80963981       1.00283998       0.00000000
Si       0.73034586      -2.80515429      -2.38814819       0.00000000
Si      -0.58790447       3.48920397       1.33107919       0.00000000
