10
Lattice="16.28999089631971 0.0 0.0 0.0 16.28999089631971 0.0 0.0 0.0 34.51877397758722" Properties=species:S:1:pos:R:3:initial_magmoms:R:1 pbc="T T T"
Si      -0.78846858       1.86113250      -1.12310346       0.00000000
Si       0.87605081       0.81738333       2.02224898       0.00000000
Si      -1.70641008      -1.52557479       0.56448583       0.00000000
Si       1.66383684      -1.05039549      -1.33415136       0.00000000
Si       1.11040038       3.32786781      -1.00456592       0.00000000
Si       1.12088462      -1.08307323       3.36782607       0.00000000
Si       0.48254238      -1.38440565      -3.49744413       0.00000000
Si       2.94499484      -2.45715102       0.26620893       0.00000000
Si      -2.64443715       2.81750211      -0.06192672       0.00000000
Si       3.08194487       1.66016277       1.81316865       0.00000000
