10
Lattice="16.28999089631971 0.0 0.0 0.0 16.28999089631971 0.0 0.0 0.0 34.51877397758722" Properties=species:S:1:pos:R:3:initial_magmoms:R:1 pbc="T T T"
Si      -1.35754344      -1.35089712      -1.39535318       0.00000000
Si       1.35951453       1.36298350      -1.39221197       0.00000000
Si      -1.46681676       1.35402480       1.39911573       0.00000000
Si       1.30083795      -1.57529187       1.44896087       0.00000000
Si      -2.72652246      -2.68640019      -0.02899579       0.00000000
Si       2.70160595       2.71490510      -0.00852614       0.00000000
Si       2.73596319      -2.71448415      -0.02499161       0.00000000
Si      -2.73463488       2.71690226      -0.03286189       0.00000000
Si      -0.00133578      -2.70780525      -2.75408192       0.00000000
Si       2.71435939       0.00700470      -2.75504845       0.00000000
