10
Lattice="16.28999089631971 0.0 0.0 0.0 16.28999089631971 0.0 0.0 0.0 34.51877397758722" Properties=species:S:1:pos:R:3:initial_magmoms:R:1 pbc="T T T"
Si       1.42181956      -1.11474099      -1.60536552       0.00000000
Si      -1.31960403      -1.34908893       1.54457792       0.00000000
Si       1.23015957       1.34299647       1.68482778       0.00000000
Si      -1.04839182       2.13975570      -0.78865087       0.00000000
Si      -0.74968209       2.64813076       1.53915847       0.00000000
Si      -3.19119471       0.17625780       1.53432584       0.00000000
Si      -3.25733211       1.33403697      -0.54625990       0.00000000
Si       2.22219288      -3.05084007      -0.48184784       0.00000000
Si      -0.27834723      -1.01423169       3.71605165       0.00000000
Si       3.16396502       2.42156781       0.95989860       0.00000000
