10
Lattice="16.28999089631971 0.0 0.0 0.0 16.28999089631971 0.0 0.0 0.0 34.51877397758722" Properties=species:S:1:pos:R:3:initial_magmoms:R:1 pbc="T T T"
Si       1.29733560      -1.26584703      -1.47517099       0.00000000
Si      -1.33871872      -1.37272572       1.36892559       0.00000000
Si       1.37805255       1.33796286       1.36699254       0.00000000
Si      -1.17389650       1.57923405      -1.44988942       0.00000000
Si       2.16121059       0.63860058      -2.96129966       0.00000000
Si      -2.69116005       2.71314837      -0.00346914       0.00000000
Si      -2.69491588      -0.01878237       2.73072651       0.00000000
Si      -2.69922275      -2.72753244      -0.01984831       0.00000000
Si       0.02057427       2.69715159       2.72979450       0.00000000
Si       0.56104389       2.56344327      -2.82529561       0.00000000
