10
Lattice="16.28999089631971 0.0 0.0 0.0 16.28999089631971 0.0 0.0 0.0 34.51877397758722" Properties=species:S:1:pos:R:3:initial_magmoms:R:1 pbc="T T T"
Si       1.35721764       1.35788553       1.35655406       0.00000000
Si      -1.35783177      -1.35757602       1.35679569       0.00000000
Si       1.35716877      -1.35553977      -1.36256033       0.00000000
Si      -1.35974911       1.36112724      -1.36138669       0.00000000
Si      -2.71423583      -2.71490769      -0.00100105       0.00000000
Si      -0.00045612      -2.71489140       2.71435079       0.00000000
Si       2.71489140      -0.00006516       2.71441983       0.00000000
Si      -2.71541384      -0.00063531       2.71455790       0.00000000
Si       2.71507059      -2.71494027       0.00013808       0.00000000
Si      -0.00032580       2.71516833       2.71514472       0.00000000
