10
Lattice="16.28999089631971 0.0 0.0 0.0 16.28999089631971 0.0 0.0 0.0 34.51877397758722" Properties=species:S:1:pos:R:3:initial_magmoms:R:1 pbc="T T T"
Si       1.35078309       1.35923760      -1.36435530       0.00000000
Si       1.40711391      -1.34280099       1.32766183       0.00000000
Si      -1.36207206      -1.35868374      -1.36508020       0.00000000
Si      -1.23751872       1.44635652       1.51068047       0.00000000
Si       2.37091176       0.33143634       2.63095339       0.00000000
Si      -0.26288802      -2.53770507       2.53350683       0.00000000
Si      -2.69594450       2.70741429       0.00452196       0.00000000
Si      -2.72457092      -2.70166392       0.00642050       0.00000000
Si       2.71199178      -0.00066789      -2.72446480       0.00000000
Si      -0.00221544       2.71520091      -2.72446480       0.00000000
