10
Lattice="16.28999089631971 0.0 0.0 0.0 16.28999089631971 0.0 0.0 0.0 34.51877397758722" Properties=species:S:1:pos:R:3:initial_magmoms:R:1 pbc="T T T"
Si       1.80087579      -1.48225968       0.40801214       0.00000000
Si      -0.15324003       1.87491384       1.44875375       0.00000000
Si       0.14038722       0.59377050      -2.32591081       0.00000000
Si      -1.79611748      -1.49193594       0.59275672       0.00000000
Si      -0.51495948      -2.89869147       2.19311701       0.00000000
Si       1.66211757      -1.99857123       2.69098157       0.00000000
Si       2.08645578       2.81193093       1.40256761       0.00000000
Si       1.16028783      -3.60103482      -0.46700475       0.00000000
Si      -2.97741194      -1.82594610      -1.57053606       0.00000000
Si      -2.34955394       2.88632736       0.92234216       0.00000000
