10
Lattice="16.28999089631971 0.0 0.0 0.0 16.28999089631971 0.0 0.0 0.0 34.51877397758722" Properties=species:S:1:pos:R:3:initial_magmoms:R:1 pbc="T T T"
Si      -0.83310874       1.97563491       0.96231492       0.00000000
Si      -0.74344905      -1.91396097       1.19676656       0.00000000
Si       0.98432488      -0.30463929      -2.19232308       0.00000000
Si       2.49163858      -0.21872583      -0.21805522       0.00000000
Si       0.39642041       3.18456468      -0.86124389       0.00000000
Si       0.23317832       1.72278153      -3.09122697       0.00000000
Si       0.34818572       2.30964507       3.12560769       0.00000000
Si       3.30459103       0.20054619       2.06584622       0.00000000
Si       0.90676819      -2.72495862       2.72708822       0.00000000
Si      -1.52615050      -3.70152783      -0.11701871       0.00000000
