10
Lattice="16.2900001489832 0.0 0.0 0.0 16.2900001489832 0.0 0.0 0.0 29.24947707576909" Properties=species:S:1:pos:R:3:initial_magmoms:R:1 pbc="T T T"
Si       0.71605954       1.86198611       1.27571594       0.00000000
Si      -1.80546959      -0.86444515       1.30105769       0.00000000
Si       0.87319288      -0.15600933      -2.26080908       0.00000000
Si       1.71888824      -1.73465696       0.24833362       0.00000000
H       -2.28452591      -0.56482318      -1.93075798       0.00000000
Si       2.45840537       1.54765427      -1.80527773       0.00000000
Si       2.06658200       0.63385677       2.80053506       0.00000000
Si      -0.61923178      -2.13817655       2.88024281       0.00000000
Si       2.23303322      -2.06242805      -2.06410635       0.00000000
Si       2.03675501       3.19582110      -0.14844110       0.00000000
