10
Lattice="16.2900001489832 0.0 0.0 0.0 16.2900001489832 0.0 0.0 0.0 29.24947707576909" Properties=species:S:1:pos:R:3:initial_magmoms:R:1 pbc="T T T"
Si       1.44331030      -1.39247899      -1.26199794       0.00000000
Si      -1.29832930      -1.35678271       1.44577240       0.00000000
Si       1.43928667       1.31430979       1.43427736       0.00000000
Si      -1.29375181       1.43694091      -1.46496006       0.00000000
Si      -2.58163922      -2.67080495      -0.07807270       0.00000000
Si      -2.50963742       2.75105523       0.12526381       0.00000000
Si       2.79383277      -2.62060832       0.26282118       0.00000000
Si       2.76400578      -0.05864400      -2.68615498       0.00000000
Si      -2.62179407       0.00535941       2.86504478       0.00000000
Si       2.86609521       2.62519868       0.07274637       0.00000000
