10
Lattice="16.2900001489832 0.0 0.0 0.0 16.2900001489832 0.0 0.0 0.0 29.24947707576909" Properties=species:S:1:pos:R:3:initial_magmoms:R:1 pbc="T T T"
Si      -1.27109242       1.57128454      -1.24491624       0.00000000
Si      -1.43065297      -1.90094039       0.22343676       0.00000000
Si       1.59009949      -1.10118120      -1.42740373       0.00000000
Si       0.61385608       0.74492542       2.32629866       0.00000000
Si      -2.30027834       2.72306900       0.62699179       0.00000000
Si       2.05996826      -1.06133261       2.79870696       0.00000000
Si       0.23364747      -2.43004611      -2.89151556       0.00000000
Si      -0.62439571      -3.12144096       2.05898769       0.00000000
Si      -2.61087977       0.31327299      -2.80590234       0.00000000
Si       2.96973219      -2.49613301      -0.09672802       0.00000000
