10
Lattice="16.2900001489832 0.0 0.0 0.0 16.2900001489832 0.0 0.0 0.0 29.24947707576909" Properties=species:S:1:pos:R:3:initial_magmoms:R:1 pbc="T T T"
H       -0.60900166      -0.13721067       1.40455989       0.00000000
Si      -1.86756707       0.34608105      -1.36557034       0.00000000
Si       1.65775187       1.69650578       0.29460073       0.00000000
Si       0.68913217      -2.27820539      -0.32121776       0.00000000
H        2.48160233      -0.37027170       1.10191555       0.00000000
H       -2.68138289      -1.62104072       0.93200534       0.00000000
Si      -2.85171114      -1.63940444      -0.57223677       0.00000000
H       -3.26922384       0.76292587       0.87417912       0.00000000
H       -1.63714501       3.09801594       0.30390207       0.00000000
Si       1.10019403      -2.82100449       1.95132036       0.00000000
