10
Lattice="16.2900001489832 0.0 0.0 0.0 16.2900001489832 0.0 0.0 0.0 29.24947707576909" Properties=species:S:1:pos:R:3:initial_magmoms:R:1 pbc="T T T"
Si      -1.74263906      -1.52485804      -0.23382032       0.00000000
Si       0.74585395       0.59878783      -2.14351868       0.00000000
Si      -0.81855622       1.76710664       1.36355212       0.00000000
Si       1.68736709      -1.27338931       1.13215951       0.00000000
H        0.00454491       2.99797905       1.32236886       0.00000000
Si      -0.48961224       0.86454289       3.46249869       0.00000000
Si      -0.89505406      -2.83688724      -2.03386239       0.00000000
Si       3.01540935      -0.04443912      -1.99124590       0.00000000
Si       1.22113099      -0.83238643       3.42446764       0.00000000
Si       3.74735163      -0.47548881       0.22112605       0.00000000
