10
Lattice="16.2900001489832 0.0 0.0 0.0 16.2900001489832 0.0 0.0 0.0 29.24947707576909" Properties=species:S:1:pos:R:3:initial_magmoms:R:1 pbc="T T T"
Si       1.32092353      -1.35297411      -1.39119288       0.00000000
Si      -1.28446651       1.42887736      -1.37177123       0.00000000
Si      -1.68256154      -1.08152243       1.28103935       0.00000000
Si       1.85419298       0.90844444       1.19873132       0.00000000
Si       2.56850948      -2.62014676       0.12384229       0.00000000
Si      -2.66390372       2.61451244       0.11486270       0.00000000
Si      -3.45481581       0.72026236       1.38350027       0.00000000
Si      -2.71533125       0.04294044      -2.64485472       0.00000000
Si       2.65230524       2.76047085      -0.07011100       0.00000000
Si       2.72432333       0.05952366      -2.69533931       0.00000000
