10
Lattice="16.2900001489832 0.0 0.0 0.0 16.2900001489832 0.0 0.0 0.0 29.24947707576909" Properties=species:S:1:pos:R:3:initial_magmoms:R:1 pbc="T T T"
Si      -0.02638980      -1.13672110       2.04146725       0.00000000
Si      -2.24337248       0.58942108      -0.31879005       0.00000000
Si       1.49605732       1.78388534       0.38205667       0.00000000
Si       0.52848018      -1.34169002      -1.88407582       0.00000000
Si      -1.29526678       0.71623873       3.14505002       0.00000000
Si      -0.79767244      -3.25886340       1.16290071       0.00000000
Si      -2.08588565       2.14786910      -2.07612788       0.00000000
Si      -0.06056622      -3.50800266      -1.13514296       0.00000000
Si       2.18919683      -1.09901300       2.85349124       0.00000000
Si       1.91998829       2.76978873      -1.73072081       0.00000000
