10
Lattice="16.2900001489832 0.0 0.0 0.0 16.2900001489832 0.0 0.0 0.0 29.24947707576909" Properties=species:S:1:pos:R:3:initial_magmoms:R:1 pbc="T T T"
Si      -1.33833754      -1.32331816       1.40290437       0.00000000
Si       1.35767377       1.34547256       1.39287180       0.00000000
Si      -1.37196010       1.41177286      -1.33272025       0.00000000
Si       1.33657822      -1.41428152      -1.36945759       0.00000000
H        1.31354416       1.49131693      -2.24924091       0.00000000
Si       2.35947620       0.40677759      -2.44075801       0.00000000
Si      -2.58535334      -2.67416642      -0.05876220       0.00000000
Si       0.08390979      -2.69900867       2.66487306       0.00000000
Si      -2.75188602       2.68205078       0.08771333       0.00000000
Si       2.68195304      -0.08146629       2.75349897       0.00000000
