10
Lattice="16.2900001489832 0.0 0.0 0.0 16.2900001489832 0.0 0.0 0.0 29.24947707576909" Properties=species:S:1:pos:R:3:initial_magmoms:R:1 pbc="T T T"
Si      -1.36793647      -1.31887099       1.35024361       0.00000000
Si      -1.42224733       1.37569051      -1.26196869       0.00000000
Si       1.22860810       1.29845962       1.55665717       0.00000000
Si       1.27966096      -1.41190318      -1.41462171       0.00000000
Si       2.59804325       2.61754238       0.08862592       0.00000000
Si       2.60222978      -2.66743865       0.13957850       0.00000000
Si      -0.08390979       2.69900867      -2.66487306       0.00000000
Si      -2.66926313       0.02484225      -2.72363526       0.00000000
Si       2.70646949      -0.10101429      -2.77615269       0.00000000
Si      -2.85343788      -0.01990638       2.64137403       0.00000000
