10
Lattice="16.2900001489832 0.0 0.0 0.0 16.2900001489832 0.0 0.0 0.0 29.24947707576909" Properties=species:S:1:pos:R:3:initial_magmoms:R:1 pbc="T T T"
Si      -0.18023256       1.03265569       2.07826309       0.00000000
Si       0.79811227       1.85202641      -1.26884232       0.00000000
Si      -1.85419298      -0.90844444      -1.19873132       0.00000000
Si       1.68050900      -1.73253926       0.13279263       0.00000000
Si       2.28361367       0.55306180      -2.55997273       0.00000000
Si      -0.53326944      -2.26141855      -2.58992420       0.00000000
Si      -2.24212304       2.09214101       2.08630670       0.00000000
Si       3.51503994      -0.75522070      -1.00922396       0.00000000
Si       0.71431651      -3.52859120      -1.07488903       0.00000000
Si       1.64172251       2.63111195       2.13351536       0.00000000
