10
Lattice="16.2900001489832 0.0 0.0 0.0 16.2900001489832 0.0 0.0 0.0 29.24947707576909" Properties=species:S:1:pos:R:3:initial_magmoms:R:1 pbc="T T T"
Si      -0.96619249      -1.79605195      -1.20768166       0.00000000
Si       1.83453095       0.97731856      -1.14201658       0.00000000
Si       0.75362428      -0.72436418       2.13752254       0.00000000
Si      -1.68050900       1.73253926      -0.13279263       0.00000000
Si      -2.21377844      -0.52887929      -2.72271682       0.00000000
Si       0.60310468       2.28560105      -2.69276536       0.00000000
Si       3.01475775      -1.23689482       1.88732251       0.00000000
Si      -1.86074156       2.76519495       1.94547047       0.00000000
Si      -3.53470197       0.82409482      -1.33152395       0.00000000
Si       3.17431830       2.23533011       0.41896951       0.00000000
