10
Lattice="16.2900001489832 0.0 0.0 0.0 16.2900001489832 0.0 0.0 0.0 29.24947707576909" Properties=species:S:1:pos:R:3:initial_magmoms:R:1 pbc="T T T"
Si      -1.49605732      -1.78388534      -0.38205667       0.00000000
Si       0.42393096       0.98590339      -2.11277748       0.00000000
Si      -0.82640800       2.01973196       0.94987677       0.00000000
Si       1.70885360      -0.90880282       1.44603565       0.00000000
Si       1.97133437       2.47502117      -1.10057007       0.00000000
Si       3.33806538      -0.99224020      -0.41347061       0.00000000
Si      -1.75998791       1.96244003      -2.40293229       0.00000000
Si       1.21808476       3.17886321       1.09515892       0.00000000
Si      -1.52244712      -2.92060643       1.65941058       0.00000000
Si      -2.10505898       1.25507935       2.78683168       0.00000000
