10
Lattice="16.2900001489832 0.0 0.0 0.0 16.2900001489832 0.0 0.0 0.0 29.24947707576909" Properties=species:S:1:pos:R:3:initial_magmoms:R:1 pbc="T T T"
Si       0.43056099       1.45233171       1.81817674       0.00000000
Si      -1.97239322      -1.19248014       0.58864573       0.00000000
Si       1.61762959      -1.77927852       0.20948475       0.00000000
Si      -0.14533938       0.98307382      -2.24960653       0.00000000
Si       1.32553360      -0.58303865      -3.12998654       0.00000000
Si       1.38968362      -2.62946992      -2.03330665       0.00000000
Si       3.46533915      -0.50061125       1.11519481       0.00000000
Si      -1.75431899       1.83371319       2.81289296       0.00000000
Si       1.24939414       3.50602831       0.94373438       0.00000000
Si       2.39547710       0.58263140       2.96057357       0.00000000
