10
Lattice="16.2900001489832 0.0 0.0 0.0 16.2900001489832 0.0 0.0 0.0 29.24947707576909" Properties=species:S:1:pos:R:3:initial_magmoms:R:1 pbc="T T T"
Si       1.34392501       1.38373777       1.32033310       0.00000000
Si      -1.18623781       1.27373140      -1.57918512       0.00000000
Si       1.31483107      -1.34073217      -1.41657850       0.00000000
Si      -1.42169347      -1.38300472       1.26598757       0.00000000
Si      -2.15945129      -0.56008279      -2.67087095       0.00000000
Si       2.33812001       0.40351959      -2.63190919       0.00000000
Si      -0.44870805      -2.25701210      -2.70890200       0.00000000
Si       0.61923178       2.13817655      -2.88024281       0.00000000
Si       2.62697429      -0.03912858       2.69222132       0.00000000
Si      -0.03481173      -2.72974790       2.59601979       0.00000000
