10
Lattice="16.2900001489832 0.0 0.0 0.0 16.2900001489832 0.0 0.0 0.0 29.24947707576909" Properties=species:S:1:pos:R:3:initial_magmoms:R:1 pbc="T T T"
Si      -0.19679949      -0.37810719       1.44571390       0.00000000
Si      -1.87918184       1.00143590      -1.41143352       0.00000000
Si       1.74522917       0.60178519       2.41243837       0.00000000
Si      -1.79561414       1.24058614       2.16141936       0.00000000
Si      -0.45020673       2.96015367      -0.93648051       0.00000000
Si      -0.26011872      -2.74901898       1.54914005       0.00000000
Si      -0.66828097      -0.06603966      -3.16072774       0.00000000
Si      -0.81147007       3.22607163       1.36808579       0.00000000
Si       3.54390582       0.04844646       0.89360077       0.00000000
Si       1.73467325       2.57877218      -1.93119672       0.00000000
