10
Lattice="16.2900001489832 0.0 0.0 0.0 16.2900001489832 0.0 0.0 0.0 29.24947707576909" Properties=species:S:1:pos:R:3:initial_magmoms:R:1 pbc="T T T"
Si      -1.60800220       1.66532672      -0.12957518       0.00000000
Si       2.09984618       0.32358456       1.04619530       0.00000000
Si       0.66313333      -0.77411710      -2.14258269       0.00000000
Si      -0.65223532      -0.95188987       2.12593974       0.00000000
Si       0.07301178       3.00166059       0.69485058       0.00000000
Si       2.17759835      -2.00326277       1.69243324       0.00000000
Si       0.07234389      -3.20102575       1.24471150       0.00000000
Si      -2.97093765       1.46548099       1.77634999       0.00000000
Si       1.45404541       1.12013299      -3.41122026       0.00000000
Si      -1.23857758      -1.49382559      -3.39767776       0.00000000
