10
Lattice="16.2900001489832 0.0 0.0 0.0 16.2900001489832 0.0 0.0 0.0 29.24947707576909" Properties=species:S:1:pos:R:3:initial_magmoms:R:1 pbc="T T T"
H        0.82310113       1.23087241      -0.04118326       0.00000000
Si       0.32894397      -0.90256375       2.09894657       0.00000000
Si      -2.27221882       0.62020918      -0.04861263       0.00000000
Si       0.81855622      -1.76710664      -1.36355212       0.00000000
H        0.19924299       2.83965002      -1.39054939       0.00000000
Si       1.30215745       0.93125044       3.19063241       0.00000000
Si      -0.92408284      -3.29196468      -1.59737244       0.00000000
Si      -3.57629034      -1.35544204       0.15938040       0.00000000
Si       2.03968721      -2.59949306       2.06091552       0.00000000
Si       2.50592330      -3.04049595      -0.23139261       0.00000000
