10
Lattice="16.2900001489832 0.0 0.0 0.0 16.2900001489832 0.0 0.0 0.0 29.24947707576909" Properties=species:S:1:pos:R:3:initial_magmoms:R:1 pbc="T T T"
Si      -1.89088783       0.28805607      -1.32052614       0.00000000
Si      -0.51417756      -0.34477785       2.28783560       0.00000000
Si       0.68626513       2.32272596       0.02383832       0.00000000
Si       1.26887698      -1.85295982      -1.10358277       0.00000000
Si      -0.25179453      -2.69280218       2.03213667       0.00000000
Si       1.29526678      -0.71623873      -3.14505002       0.00000000
H        3.02104569       1.26294742       1.29028218       0.00000000
Si       2.03670614       2.22136958       1.89042295       0.00000000
Si      -0.94810570      -0.12681765      -3.46384007       0.00000000
Si      -2.94806649       2.13995216      -0.38983703       0.00000000
