10
Lattice="16.2900001489832 0.0 0.0 0.0 16.2900001489832 0.0 0.0 0.0 29.24947707576909" Properties=species:S:1:pos:R:3:initial_magmoms:R:1 pbc="T T T"
Si      -1.10941580      -1.52246016       1.38970115       0.00000000
Si      -0.04720679      -0.74032838      -2.22796192       0.00000000
Si       2.28753793       0.08486276       0.57182728       0.00000000
Si      -1.13914505       2.06911021       0.01892441       0.00000000
H        2.45786617       0.10322647       2.07606938       0.00000000
H        1.87002523       2.48719306       2.01824317       0.00000000
Si       2.20397023      -0.15428748      -3.00102560       0.00000000
Si      -0.66555565      -3.08211364      -1.98732647       0.00000000
H        1.19666178       3.03043199      -1.92101791       0.00000000
Si      -1.63693487      -3.49328953       0.15636770       0.00000000
