10
Lattice="16.2900001489832 0.0 0.0 0.0 16.2900001489832 0.0 0.0 0.0 29.24947707576909" Properties=species:S:1:pos:R:3:initial_magmoms:R:1 pbc="T T T"
Si       1.11079882      -1.03899250       1.79082848       0.00000000
Si       1.38119653       1.22248306      -1.48136902       0.00000000
Si      -1.35980776      -1.44309853      -1.29563484       0.00000000
Si      -1.37819917       1.36024759       1.38967191       0.00000000
Si      -2.22601223      -0.14656113       3.02892960       0.00000000
Si       2.69413796       2.66730833      -0.18125901       0.00000000
Si       2.79181281       0.29734137       2.61525424       0.00000000
Si      -0.00110772       2.55769292      -2.86185659       0.00000000
Si      -2.82703179       2.60286509      -0.01804693       0.00000000
Si      -2.71889876      -0.11986182      -2.76050715       0.00000000
