10
Lattice="16.2900001489832 0.0 0.0 0.0 16.2900001489832 0.0 0.0 0.0 29.24947707576909" Properties=species:S:1:pos:R:3:initial_magmoms:R:1 pbc="T T T"
Si      -1.77942188      -0.97844257      -1.12274147       0.00000000
Si       1.34475580      -1.47825235       1.22241755       0.00000000
Si       1.13101471       1.46453617      -1.45651866       0.00000000
Si      -1.39745395       1.33009480       1.36810919       0.00000000
H       -0.04790889       2.36534060      -1.78247483       0.00000000
H       -2.82535392       0.10609677      -0.93122438       0.00000000
Si       2.54549171       2.69320943      -0.03762360       0.00000000
Si       2.65289168      -0.08708634       2.62966254       0.00000000
Si      -0.06338439      -2.79494049       2.64297105       0.00000000
Si       2.62858700      -2.80003926      -0.33545933       0.00000000
