10
Lattice="16.2900001489832 0.0 0.0 0.0 16.2900001489832 0.0 0.0 0.0 29.24947707576909" Properties=species:S:1:pos:R:3:initial_magmoms:R:1 pbc="T T T"
H       -1.17892360       0.90080443      -0.32595617       0.00000000
Si       1.41447700       1.22867326       1.41889506       0.00000000
Si      -1.13101471      -1.46453617       1.45651866       0.00000000
Si       0.64472563      -0.54231039      -2.23033113       0.00000000
Si      -1.52681284      -1.06767919      -3.08678506       0.00000000
Si      -2.52846866      -0.13444137       2.82462785       0.00000000
Si      -2.91043659      -2.44297874       0.33377719       0.00000000
Si       0.08514783       2.47954979       2.90196639       0.00000000
Si       1.35040843       1.56574594      -3.22574933       0.00000000
Si       2.27416547       3.11463174       0.30711190       0.00000000
