10
Lattice="16.2900001489832 0.0 0.0 0.0 16.2900001489832 0.0 0.0 0.0 29.24947707576909" Properties=species:S:1:pos:R:3:initial_magmoms:R:1 pbc="T T T"
Si       1.34553772       1.29541339      -1.39016037       0.00000000
Si      -1.26807877      -1.31857777      -1.46749891       0.00000000
Si       1.42012963      -1.40581072       1.24260553       0.00000000
Si      -1.35024553       1.39911553       1.33313267       0.00000000
Si      -2.65184912      -2.68842017      -0.12471977       0.00000000
Si       2.80689735       0.01221750       2.54286179       0.00000000
Si       0.02078604      -2.75688705       2.60258922       0.00000000
Si       0.07123617       2.79477759       2.56725585       0.00000000
Si      -2.66238875       0.09751194      -2.77566715       0.00000000
Si      -2.63329481       2.82198189      -0.03875556       0.00000000
