10
Lattice="16.2900001489832 0.0 0.0 0.0 16.2900001489832 0.0 0.0 0.0 29.24947707576909" Properties=species:S:1:pos:R:3:initial_magmoms:R:1 pbc="T T T"
H       -0.20380419       0.74706918      -1.30493617       0.00000000
Si       2.13076460      -0.92801524      -0.06721530       0.00000000
Si      -1.58521249      -1.70366360      -0.45553136       0.00000000
Si      -0.42165036       1.64816683       1.65683663       0.00000000
Si       2.70029558       1.16050938      -1.21323906       0.00000000
Si      -2.45840537      -1.54765427       1.80527773       0.00000000
Si      -1.74234584       0.31433184       3.08099367       0.00000000
Si      -1.99627436      -1.16086451      -2.72806948       0.00000000
H       -3.29440818       0.98013021      -1.00229183       0.00000000
Si      -1.21603222       3.39610014       0.25564043       0.00000000
