10
Lattice="16.2900001489832 0.0 0.0 0.0 16.2900001489832 0.0 0.0 0.0 29.24947707576909" Properties=species:S:1:pos:R:3:initial_magmoms:R:1 pbc="T T T"
Si       1.26231211      -1.47041686       1.30749842       0.00000000
Si      -1.72232543      -0.92406655      -1.29333905       0.00000000
Si       1.79465303       0.88449814      -1.24092369       0.00000000
Si      -1.37463166       1.44444718       1.25886239       0.00000000
H       -0.00175932      -3.04916223      -1.92042414       0.00000000
Si       2.71218728      -0.03810231       2.49387769       0.00000000
Si       2.59164128      -2.72129339      -0.17557291       0.00000000
Si       3.45132975      -0.83533492      -1.28735606       0.00000000
Si      -2.71652042       0.05615163       2.65890324       0.00000000
Si      -0.02938716       2.78175047       2.60792140       0.00000000
