10
Lattice="16.2900001489832 0.0 0.0 0.0 16.2900001489832 0.0 0.0 0.0 29.24947707576909" Properties=species:S:1:pos:R:3:initial_magmoms:R:1 pbc="T T T"
Si       1.48090111      -1.36172998      -1.23917750       0.00000000
Si       1.33826098       1.25817445       1.50671369       0.00000000
Si      -1.38137572      -1.41890788       1.31442763       0.00000000
Si      -1.33625242       1.31118211      -1.50014426       0.00000000
Si      -2.69465924       2.59445945      -0.01810250       0.00000000
Si       2.71210583       2.61360020       0.19555908       0.00000000
Si      -2.45224775      -0.31092723      -2.88570953       0.00000000
Si       0.01392795      -2.82771597       2.59251278       0.00000000
Si      -0.01053963       2.65497680       2.82905330       0.00000000
Si       0.11482170       2.71350677      -2.77912444       0.00000000
