10
Lattice="16.2900001489832 0.0 0.0 0.0 16.2900001489832 0.0 0.0 0.0 29.24947707576909" Properties=species:S:1:pos:R:3:initial_magmoms:R:1 pbc="T T T"
Si       1.19864102       0.27039771       0.87362338       0.00000000
H       -0.10332747      -0.24187392      -2.15776317       0.00000000
H       -0.86876200      -1.88327063      -1.24634947       0.00000000
Si       0.22726179      -0.14077818       3.01731756       0.00000000
Si       2.69421453      -1.41152851       0.13197364       0.00000000
Si      -0.75929320      -3.08162820      -0.31838056       0.00000000
Si       1.09002907       0.04118112      -3.05531263       0.00000000
Si       1.81698987       2.61218297       0.63298793       0.00000000
H       -2.84785041       0.83266336      -1.66789293       0.00000000
Si       1.26601858      -3.12833163       0.90313610       0.00000000
