10
Lattice="16.2900001489832 0.0 0.0 0.0 16.2900001489832 0.0 0.0 0.0 29.24947707576909" Properties=species:S:1:pos:R:3:initial_magmoms:R:1 pbc="T T T"
Si       1.10941580       1.52246016      -1.38970115       0.00000000
Si      -1.97288192       0.77151070       1.01109592       0.00000000
Si       1.09582016      -0.59375422       2.02830499       0.00000000
Si      -0.52751907      -1.97082938      -1.23333345       0.00000000
Si      -2.29469087      -1.45200916       2.02526304       0.00000000
Si      -0.20825136      -2.56940543       2.23629802       0.00000000
Si      -0.99013879       2.54787005       2.31828430       0.00000000
Si       0.19688094      -3.71123670       0.21662163       0.00000000
Si       0.44386015      -1.55965348      -3.37702763       0.00000000
Si       0.35609940       1.07336440       3.63878120       0.00000000
