10
Lattice="16.2900001489832 0.0 0.0 0.0 16.2900001489832 0.0 0.0 0.0 29.24947707576909" Properties=species:S:1:pos:R:3:initial_magmoms:R:1 pbc="T T T"
Si      -1.16906815       0.55592884       0.80017794       0.00000000
H       -1.63207882      -2.33509007       0.57027705       0.00000000
Si       0.02881701       1.77463262       2.43730043       0.00000000
H        2.73481409       1.50250816       0.17804157       0.00000000
Si      -2.41355900      -1.40558266       1.47385190       0.00000000
Si       1.12233214       1.50744403      -2.54958917       0.00000000
Si       2.89918020       0.66515329      -1.08881178       0.00000000
Si      -2.45061875       1.98094547      -0.54371853       0.00000000
Si      -0.23042205      -2.75193489      -1.66947240       0.00000000
Si       1.63714501      -3.09801594      -0.30390207       0.00000000
