10
Lattice="16.2900001489832 0.0 0.0 0.0 16.2900001489832 0.0 0.0 0.0 29.24947707576909" Properties=species:S:1:pos:R:3:initial_magmoms:R:1 pbc="T T T"
Si      -1.32934546       1.46002384       1.26477664       0.00000000
Si      -1.30595302      -1.45754776      -1.30505317       0.00000000
Si       0.97002064      -1.07147476       1.86512216       0.00000000
Si       1.34118829       1.34669431      -1.40561287       0.00000000
H        1.26390853       0.12365739       2.76480682       0.00000000
Si      -2.72072324      -0.04823469      -2.63967756       0.00000000
Si       2.90041172       2.48883509      -0.05238581       0.00000000
Si       0.07348419      -2.64318284      -2.79168709       0.00000000
Si       2.59779890      -0.04215852      -2.84214244       0.00000000
Si      -0.04465089       2.72484461      -2.72789398       0.00000000
