10
Lattice="16.2900001489832 0.0 0.0 0.0 16.2900001489832 0.0 0.0 0.0 29.24947707576909" Properties=species:S:1:pos:R:3:initial_magmoms:R:1 pbc="T T T"
Si       1.42224733      -1.37569051       1.26196869       0.00000000
Si       1.33833754       1.32331816      -1.40290437       0.00000000
Si      -1.24701580      -1.35084826      -1.46166657       0.00000000
Si      -1.40535460       1.31514058       1.36489760       0.00000000
Si       0.05431086      -2.69456150       2.61221230       0.00000000
Si       2.69601131       2.66879072      -0.01003257       0.00000000
Si      -2.64475320       0.03003876      -2.74992761       0.00000000
Si      -2.84364759      -0.12616605       2.55122714       0.00000000
Si      -0.03559365       2.72582202       2.70472839       0.00000000
Si      -2.78739333       2.64994319      -0.00403643       0.00000000
