10
Lattice="16.2900001489832 0.0 0.0 0.0 16.2900001489832 0.0 0.0 0.0 29.24947707576909" Properties=species:S:1:pos:R:3:initial_magmoms:R:1 pbc="T T T"
Si       0.84489715       2.09385146       0.71476947       0.00000000
Si       1.50573033      -1.32014161      -1.27012929       0.00000000
Si      -1.59584986       1.15233832      -1.33702285       0.00000000
Si      -0.90381808      -0.76230685       2.11614117       0.00000000
Si      -2.31684527       1.09806004       2.23670751       0.00000000
Si      -0.58026610       2.67683798       2.49802234       0.00000000
Si       3.15103989      -2.04309182       0.27956650       0.00000000
Si      -3.42692733       1.58649940       0.22115530       0.00000000
Si       2.67082697       0.14401989      -2.70142320       0.00000000
Si       3.15762105       1.90516439       0.93504728       0.00000000
