10
Lattice="16.2900001489832 0.0 0.0 0.0 16.2900001489832 0.0 0.0 0.0 29.24947707576909" Properties=species:S:1:pos:R:3:initial_magmoms:R:1 pbc="T T T"
Si       1.86180041      -1.18522783      -0.86145560       0.00000000
Si      -1.93152161      -0.47517930      -1.30797812       0.00000000
Si       0.77504563       2.17523630      -0.72023912       0.00000000
Si      -0.60155713      -0.60033538       2.26598624       0.00000000
H        1.66433303       2.77358430       0.35848159       0.00000000
Si      -2.94879954       1.60021558      -0.70924132       0.00000000
Si       0.78990211      -2.53218278       2.22740618       0.00000000
Si      -1.25573095       3.30853161      -0.97576256       0.00000000
Si       2.69454521      -2.34354458       0.95508317       0.00000000
Si       1.00157437      -2.50374044      -2.56096721       0.00000000
