10
Lattice="16.2900001489832 0.0 0.0 0.0 16.2900001489832 0.0 0.0 0.0 29.24947707576909" Properties=species:S:1:pos:R:3:initial_magmoms:R:1 pbc="T T T"
Si       1.92819845      -0.16448013      -1.28019111       0.00000000
Si      -1.78802300      -0.57893032      -1.36706206       0.00000000
Si      -0.29791152       2.34035174       0.30083087       0.00000000
Si       0.70446106      -1.72444313       1.50959476       0.00000000
H       -2.77084758       0.49893012      -0.93367256       0.00000000
Si       2.89341354       1.81428248      -0.42253795       0.00000000
Si       0.92098774      -0.67712644      -3.34596468       0.00000000
Si       3.00807885      -1.72525763       0.77221544       0.00000000
Si       0.00340461       2.40143924       2.62432158       0.00000000
Si      -0.64194004      -3.50232723       0.64977713       0.00000000
