10
Lattice="16.2900001489832 0.0 0.0 0.0 16.2900001489832 0.0 0.0 0.0 29.24947707576909" Properties=species:S:1:pos:R:3:initial_magmoms:R:1 pbc="T T T"
H        0.29388789       1.19513215       0.89968467       0.00000000
Si       2.06189048      -1.05948532      -0.00804361       0.00000000
Si      -0.97002064       1.07147476      -1.86512216       0.00000000
Si      -1.63017289      -1.18262143       1.28724024       0.00000000
Si      -2.29936610       2.53149860      -0.60034552       0.00000000
Si      -1.66454480       0.38206566       3.08005768       0.00000000
Si       1.90440364      -2.61793334       1.74929423       0.00000000
Si       2.24212304      -2.09214101      -2.08630670       0.00000000
Si      -0.49122495       2.43978590       2.80660432       0.00000000
Si       3.88384555       0.53897094       0.04720866       0.00000000
