10
Lattice="16.2900001489832 0.0 0.0 0.0 16.2900001489832 0.0 0.0 0.0 29.24947707576909" Properties=species:S:1:pos:R:3:initial_magmoms:R:1 pbc="T T T"
Si      -1.37747101      -1.41030025      -1.34629493       0.00000000
Si      -1.31191687       1.20251804       1.61763648       0.00000000
Si       1.43320562      -1.31827230       1.44105739       0.00000000
Si       0.73146499       2.03418770      -1.11066114       0.00000000
Si      -2.71986476       2.60081907       0.34751011       0.00000000
Si      -2.70569246      -2.65645268       0.23838324       0.00000000
Si      -2.72370920       0.06420541      -2.66679182       0.00000000
Si       2.72109303       2.78947356       0.05417003       0.00000000
Si       0.08112909       2.65682409       2.89245154       0.00000000
Si       0.07945285      -2.70828746       2.88472968       0.00000000
