10
Lattice="16.2900001489832 0.0 0.0 0.0 16.2900001489832 0.0 0.0 0.0 29.24947707576909" Properties=species:S:1:pos:R:3:initial_magmoms:R:1 pbc="T T T"
Si       0.47382723       2.22552353      -0.30226410       0.00000000
Si       1.74273680      -0.99191440       1.18314135       0.00000000
Si      -1.71027083      -0.29432772       1.56268256       0.00000000
Si      -0.24324228      -0.87081454      -2.20634655       0.00000000
Si       2.47446731       1.96934699      -1.49327355       0.00000000
Si       0.66652165      -2.74729549       2.24495586       0.00000000
Si      -1.64515970      -2.61290625       1.99177239       0.00000000
Si      -1.51619176       3.21997917      -1.01428412       0.00000000
Si      -0.70306012       0.21831858       3.62845613       0.00000000
Si       3.19554417      -1.94544956      -0.37000589       0.00000000
