10
Lattice="16.2900001489832 0.0 0.0 0.0 16.2900001489832 0.0 0.0 0.0 29.24947707576909" Properties=species:S:1:pos:R:3:initial_magmoms:R:1 pbc="T T T"
Si      -0.62709985       0.38781603       2.19554589       0.00000000
Si      -1.55085688      -1.16106976      -1.33731534       0.00000000
Si       2.08643951      -1.11739627       0.21103498       0.00000000
Si       0.32180895       2.22351986      -1.01416712       0.00000000
Si       2.29469087       1.45200916      -2.02526304       0.00000000
Si      -3.21367494       0.57888145      -1.14655025       0.00000000
Si       3.39051104       0.85825495       0.00304195       0.00000000
Si       1.32256882       1.27922113       3.19819632       0.00000000
Si       1.76717180      -0.51882021      -3.25859649       0.00000000
Si       2.49157181      -2.25922754      -1.80864142       0.00000000
