10
Lattice="16.2900001489832 0.0 0.0 0.0 16.2900001489832 0.0 0.0 0.0 29.24947707576909" Properties=species:S:1:pos:R:3:initial_magmoms:R:1 pbc="T T T"
Si      -1.44063223       1.36166482       1.29537159       0.00000000
Si       1.31192168      -1.29893203       1.49172333       0.00000000
Si       1.42407833       1.44676378      -1.24805764       0.00000000
Si      -1.39304596      -1.45430605      -1.27481506       0.00000000
Si       2.63538645      -2.66107415       0.07245095       0.00000000
Si      -2.80099385      -0.05600502      -2.54494143       0.00000000
Si       0.02634093       2.82765081      -2.53631868       0.00000000
Si      -2.72417021      -2.68074596       0.22943290       0.00000000
Si      -0.17255346       2.67144599       2.76483607       0.00000000
Si       2.67109413       2.79761205       0.21360893       0.00000000
