10
Lattice="16.2900001489832 0.0 0.0 0.0 16.2900001489832 0.0 0.0 0.0 29.24947707576909" Properties=species:S:1:pos:R:3:initial_magmoms:R:1 pbc="T T T"
Si       1.37142253       1.33988509      -1.35311006       0.00000000
Si       1.22020246      -1.41095836       1.43822604       0.00000000
Si      -1.37466424       1.35047359       1.37525191       0.00000000
Si      -1.36976095      -1.41068143      -1.33983080       0.00000000
Si      -0.75741985      -2.23625864       2.54698596       0.00000000
Si      -2.50544112      -0.32099445       2.63625537       0.00000000
Si       2.62855442       2.71279001       0.11822639       0.00000000
Si      -0.01545921       2.68662827      -2.68314228       0.00000000
Si       0.03559365      -2.72582202      -2.70472839       0.00000000
Si       2.57831606      -0.08032599       2.85635768       0.00000000
