10
Lattice="16.2900001489832 0.0 0.0 0.0 16.2900001489832 0.0 0.0 0.0 29.24947707576909" Properties=species:S:1:pos:R:3:initial_magmoms:R:1 pbc="T T T"
Si       1.37466424      -1.35047359      -1.37525191       0.00000000
Si      -1.37237550       1.35037585      -1.38107256       0.00000000
Si      -1.13077688      -1.67146805       1.26100346       0.00000000
Si       1.24659226       1.40416543       1.48081328       0.00000000
Si       2.59486670      -2.76143196       0.06297412       0.00000000
Si      -2.75028960       2.63748134       0.03738083       0.00000000
Si      -2.51590940      -0.26520120       2.85240900       0.00000000
Si       0.61724440      -3.58673223       1.17173405       0.00000000
Si       2.58721040      -0.05245380       2.83910049       0.00000000
Si       2.74608678      -0.01058850      -2.72836197       0.00000000
