10
Lattice="16.2900001489832 0.0 0.0 0.0 16.2900001489832 0.0 0.0 0.0 29.24947707576909" Properties=species:S:1:pos:R:3:initial_magmoms:R:1 pbc="T T T"
Si       0.06419889       0.40959576       2.27183613       0.00000000
Si      -0.80625727       1.22050057      -1.83555093       0.00000000
Si      -1.75286918      -1.61189551      -0.04109552       0.00000000
Si       2.04569822      -0.77108716      -0.97596730       0.00000000
Si       0.81897976      -2.12727854      -2.42340692       0.00000000
Si       2.68436396       2.06010835       0.73971928       0.00000000
Si      -0.60662332      -3.37404999      -1.04903250       0.00000000
Si      -0.52046550      -0.55009702      -3.52549797       0.00000000
Si       2.24860646       1.03493955       2.78191776       0.00000000
Si       0.12834891      -1.63683551       3.36851603       0.00000000
