10
Lattice="16.2900001489832 0.0 0.0 0.0 16.2900001489832 0.0 0.0 0.0 29.24947707576909" Properties=species:S:1:pos:R:3:initial_magmoms:R:1 pbc="T T T"
H        0.98433955      -0.95842216      -0.60014077       0.00000000
Si      -1.35044101       0.10135638      -1.86658463       0.00000000
Si       1.18130194       2.04942863       0.22384625       0.00000000
Si      -1.05091678      -1.25999893       1.73621971       0.00000000
H        1.85966642      -0.43580637       1.44474867       0.00000000
H       -1.51329214       1.78254956       2.11140275       0.00000000
Si       2.84249100      -1.51366681       1.01135917       0.00000000
Si      -1.31074228       0.68908330       3.15906052       0.00000000
Si      -2.03670614      -2.22136958      -1.89042295       0.00000000
Si       2.92622160       1.51925428      -1.38774144       0.00000000
