10
Lattice="16.2900001489832 0.0 0.0 0.0 16.2900001489832 0.0 0.0 0.0 29.24947707576909" Properties=species:S:1:pos:R:3:initial_magmoms:R:1 pbc="T T T"
Si      -1.07621515      -1.75538109       1.06181452       0.00000000
Si      -1.74273680       0.99191440      -1.18314135       0.00000000
Si       1.45280737      -0.95353516      -1.55314723       0.00000000
Si       1.41820741       1.43050636       1.19074621       0.00000000
H       -0.76085704      -2.98431548       0.22911115       0.00000000
Si       2.30071817       2.22803219      -0.93317532       0.00000000
Si      -3.45300762       0.69758668       0.37954121       0.00000000
Si      -2.44579691       1.21023298       2.44531478       0.00000000
Si      -1.26890956       3.21743793      -1.48540544       0.00000000
Si       2.60664437       0.02236617       2.76515781       0.00000000
