10
Lattice="16.2900001489832 0.0 0.0 0.0 16.2900001489832 0.0 0.0 0.0 29.24947707576909" Properties=species:S:1:pos:R:3:initial_magmoms:R:1 pbc="T T T"
Si      -1.57973254       1.48546882      -0.88269072       0.00000000
Si       1.20417636       1.59482359       1.24863093       0.00000000
Si      -1.15606221      -1.50706936       1.43758255       0.00000000
Si       1.55579927      -0.67121317      -1.69573843       0.00000000
Si       1.83885431       2.78717016      -0.73073969       0.00000000
Si       2.83734987      -2.09622980      -0.35184196       0.00000000
Si      -3.53140488       0.79739551       0.35307044       0.00000000
Si      -2.69721026       0.02204037       2.48439208       0.00000000
Si      -2.37455423       0.44566182      -2.84278593       0.00000000
Si       2.57636778       0.32425245       2.68530674       0.00000000
