10
Lattice="16.2900001489832 0.0 0.0 0.0 16.2900001489832 0.0 0.0 0.0 29.24947707576909" Properties=species:S:1:pos:R:3:initial_magmoms:R:1 pbc="T T T"
Si       0.66033145      -2.24020082       0.62251662       0.00000000
Si       1.53665200       1.65410291       0.88169624       0.00000000
Si      -1.99330958       1.13083552       0.79842298       0.00000000
Si      -1.07059510      -0.19404648      -2.17189067       0.00000000
H       -1.84246418      -1.82423567      -0.84551463       0.00000000
Si      -3.01493694       0.89075350      -1.36296713       0.00000000
Si       1.68787208       2.95841064      -1.14695974       0.00000000
Si       2.97048153      -1.93528460       1.11028090       0.00000000
H        2.27009297       1.98358445      -2.19856619       0.00000000
Si       3.05567823       0.27963414       2.16683051       0.00000000
