10
Lattice="16.28999089631971 0.0 0.0 0.0 16.28999089631971 0.0 0.0 0.0 34.71893929493243" Properties=species:S:1:pos:R:3:initial_magmoms:R:1 pbc="T T T"
Si      -1.54463083      -1.44754569      -0.95077868       0.00000000
Si      -0.73409093       1.87812297       1.23321741       0.00000000
Si       1.01035467       1.26617283      -1.72386574       0.00000000
Si       1.31725827      -1.36036161       1.42243574       0.00000000
Si       1.53163467       2.64839562       1.56731795       0.00000000
Si       2.64440457       2.38607775      -0.49703661       0.00000000
Si      -1.44701464      -0.86019345      -3.28017778       0.00000000
Si      -1.79694013       3.24630378      -0.46776853       0.00000000
Si       3.50373465      -1.32538698       0.41471796       0.00000000
Si      -0.63472845       2.77816176      -2.47882949       0.00000000
