10
Lattice="16.28999089631971 0.0 0.0 0.0 16.28999089631971 0.0 0.0 0.0 34.71893929493243" Properties=species:S:1:pos:R:3:initial_magmoms:R:1 pbc="T T T"
Si       1.50558696      -1.19637360       1.30156168       0.00000000
Si      -1.19576745       1.54407371       1.28486186       0.00000000
Si      -1.67358573      -0.97870483      -1.33160435       0.00000000
Si       1.84466331       0.83936831      -1.28250965       0.00000000
Si       0.35432379       0.61652111      -3.07285147       0.00000000
Si      -0.11052765      -1.67830724      -2.94105831       0.00000000
Si       0.15864831      -2.52535466       2.65554899       0.00000000
Si      -2.63186127      -2.55570293       0.06486890       0.00000000
Si      -2.56227039       0.18875223       2.65318810       0.00000000
Si       2.66861151      -2.64220283      -0.16435608       0.00000000
