10
Lattice="16.28999089631971 0.0 0.0 0.0 16.28999089631971 0.0 0.0 0.0 34.71893929493243" Properties=species:S:1:pos:R:3:initial_magmoms:R:1 pbc="T T T"
Si      -1.35713619      -1.35771611       1.35685162       0.00000000
Si       1.35834165       1.35656604       1.35699050       0.00000000
Si       1.35780408      -1.35753692      -1.35737241       0.00000000
Si      -1.35752715       1.35772263      -1.35799735       0.00000000
Si       2.71379997      -0.00123804      -2.71530032       0.00000000
Si       2.71743264      -0.00250866       2.71175899       0.00000000
Si      -2.71409319      -0.00081450       2.71536976       0.00000000
Si      -2.71463076      -2.71512490      -0.00034719       0.00000000
Si       2.71495656      -2.71490807      -0.00059022       0.00000000
Si       0.00045612      -2.71570746      -2.71443235       0.00000000
