10
Lattice="16.28999089631971 0.0 0.0 0.0 16.28999089631971 0.0 0.0 0.0 34.71893929493243" Properties=species:S:1:pos:R:3:initial_magmoms:R:1 pbc="T T T"
Si       1.36146933       1.34433225      -1.38750847       0.00000000
Si      -1.35136953      -1.36681245      -1.38525173       0.00000000
Si       1.30438917      -1.47942522       1.38254365       0.00000000
Si      -1.28598147       1.42985475       1.57999037       0.00000000
Si      -2.70506853       2.70679527       0.01322792       0.00000000
Si       2.71132389       2.72373687      -0.00795064       0.00000000
Si       0.00558747       2.70316260      -2.74956793       0.00000000
Si      -2.70896184      -2.74590756      -0.00808952       0.00000000
Si       2.71858923      -2.73939156      -0.02951111       0.00000000
Si      -2.71055826      -0.01301571      -2.75081782       0.00000000
