10
Lattice="16.28999089631971 0.0 0.0 0.0 16.28999089631971 0.0 0.0 0.0 34.71893929493243" Properties=species:S:1:pos:R:3:initial_magmoms:R:1 pbc="T T T"
Si       1.04097987      -1.40224320      -1.66987776       0.00000000
Si      -1.43855361       1.09004535      -1.64810897       0.00000000
Si      -1.39059585      -1.92538026       0.64948756       0.00000000
Si       0.36035109       0.91344546       2.37123544       0.00000000
Si      -3.30564825      -0.57355461       1.02247333       0.00000000
Si      -3.48685821       1.30008861      -0.39905971       0.00000000
Si      -0.70377687      -2.41914645       2.90882380       0.00000000
Si      -0.02101410       2.61408888      -2.97024164       0.00000000
Si       2.60400537       0.41927202       2.97017220       0.00000000
Si      -1.09017567      -0.26287173       3.85192959       0.00000000
