10
Lattice="16.28999089631971 0.0 0.0 0.0 16.28999089631971 0.0 0.0 0.0 34.71893929493243" Properties=species:S:1:pos:R:3:initial_magmoms:R:1 pbc="T T T"
Si      -1.14166836      -1.54782693      -1.34824132       0.00000000
Si       1.52837667       1.10705211      -1.49781060       0.00000000
Si      -1.04097987       1.40224320       1.66987776       0.00000000
Si      -2.43157572      -0.52313706       2.31936532       0.00000000
Si      -2.47953348       2.49228855       0.02176879       0.00000000
Si      -2.48497434      -0.15943023      -2.88844377       0.00000000
Si      -1.84437009      -3.34882164       0.06457726       0.00000000
Si       0.22398750       2.58647733      -2.88035425       0.00000000
Si       3.29953950       2.31124149      -0.29434733       0.00000000
Si       0.23278410      -2.84678338      -2.88976309       0.00000000
