10
Lattice="16.28999089631971 0.0 0.0 0.0 16.28999089631971 0.0 0.0 0.0 34.71893929493243" Properties=species:S:1:pos:R:3:initial_magmoms:R:1 pbc="T T T"
Si       1.36671471       1.33219620       1.37860652       0.00000000
Si       1.39175244      -1.27483911      -1.40774962       0.00000000
Si      -1.34377839      -1.38491064       1.37489160       0.00000000
Si      -1.46085462       1.37528325      -1.50802491       0.00000000
Si      -0.38822328      -2.37389283      -2.64510657       0.00000000
Si      -2.70005121       2.68470603       0.01865102       0.00000000
Si       2.72727180       2.68333767      -0.01833508       0.00000000
Si       0.01000206       2.68970706       2.73816623       0.00000000
Si      -2.70531288      -0.02608029       2.73740241       0.00000000
Si       2.71153566      -2.74781349       0.00383644       0.00000000
