10
Lattice="16.28999089631971 0.0 0.0 0.0 16.28999089631971 0.0 0.0 0.0 34.71893929493243" Properties=species:S:1:pos:R:3:initial_magmoms:R:1 pbc="T T T"
Si       1.35358497      -1.35896067       1.36376070       0.00000000
Si      -1.36153449       1.35883035       1.36251082       0.00000000
Si      -1.38160377      -1.34931699      -1.36883314       0.00000000
Si       1.34377839       1.38491064      -1.37489160       0.00000000
Si       2.71347417      -2.71036278       0.00388852       0.00000000
Si       2.71049310       2.71710684       0.00371493       0.00000000
Si       2.71259451       0.00123804       2.72026513       0.00000000
Si      -2.72321559      -2.71003698       0.00579807       0.00000000
Si      -0.00298107      -2.71344159       2.72002210       0.00000000
Si      -2.71839375       2.71761183       0.00347190       0.00000000
