10
Lattice="16.28999089631971 0.0 0.0 0.0 16.28999089631971 0.0 0.0 0.0 34.71893929493243" Properties=species:S:1:pos:R:3:initial_magmoms:R:1 pbc="T T T"
Si      -1.41753951      -1.52404353       1.32213267       0.00000000
Si      -1.41908706       1.27694052      -1.56676245       0.00000000
Si       1.28598147      -1.42985475      -1.57999037       0.00000000
Si       1.58136804       1.15127946       1.56422797       0.00000000
Si       2.59037064      -2.90927997      -0.19744672       0.00000000
Si       2.78544339       2.73254976       0.07662474       0.00000000
Si      -2.85953031       2.66848119      -0.09936566       0.00000000
Si       0.02101410      -2.61408888       2.97024164       0.00000000
Si      -0.06581160       2.63057436      -2.96746412       0.00000000
Si       2.64745080      -0.08552250      -2.96749884       0.00000000
