10
Lattice="16.28999089631971 0.0 0.0 0.0 16.28999089631971 0.0 0.0 0.0 34.71893929493243" Properties=species:S:1:pos:R:3:initial_magmoms:R:1 pbc="T T T"
Si      -0.19012059      -0.14186961       2.39432355       0.00000000
Si      -2.02224060      -1.27066887      -0.77503132       0.00000000
Si       2.09218986      -1.36402686      -0.53234579       0.00000000
Si      -0.23081301       2.33530182      -1.30116242       0.00000000
Si      -0.82963341      -2.15844129      -2.99214930       0.00000000
Si       1.83689298       0.53348121       3.30375195       0.00000000
Si       2.06840646       0.90487692      -3.17418080       0.00000000
Si       2.06421993       2.97911520      -1.44267689       0.00000000
Si      -2.44420047      -2.73756708       1.33869361       0.00000000
Si      -1.48494753       1.57416786       3.31895886       0.00000000
