10
Lattice="16.28999089631971 0.0 0.0 0.0 16.28999089631971 0.0 0.0 0.0 34.71893929493243" Properties=species:S:1:pos:R:3:initial_magmoms:R:1 pbc="T T T"
Si      -0.30772299       2.33285832      -0.05801538       0.00000000
Si      -1.76390305      -0.64571931      -1.46621634       0.00000000
Si      -1.33053625      -0.66645648       1.94037316       0.00000000
Si       2.31135715      -0.96619248      -0.03770479       0.00000000
Si      -0.07191058      -0.39097629      -3.14355868       0.00000000
Si      -2.64012586      -1.92390276       0.34427319       0.00000000
Si       1.95120154       2.69449632       0.30042315       0.00000000
Si       3.18694465       0.89228475       1.18836052       0.00000000
Si      -0.08726553      -2.41362740       3.04249179       0.00000000
Si       0.69665977       1.87626591      -3.33055499       0.00000000
