10
Lattice="16.28999089631971 0.0 0.0 0.0 16.28999089631971 0.0 0.0 0.0 34.71893929493243" Properties=species:S:1:pos:R:3:initial_magmoms:R:1 pbc="T T T"
Si      -1.79576073      -0.73254501      -1.26873491       0.00000000
Si      -0.22126707      -1.18887678       1.98227895       0.00000000
Si       1.62202788      -0.71990397      -1.50930257       0.00000000
Si      -0.74376882       2.23477623       0.40836439       0.00000000
Si      -2.40811812      -0.23310990       2.29981854       0.00000000
Si       2.70614367       1.30176648      -1.92006257       0.00000000
Si       1.73846880      -0.50995845       3.12258843       0.00000000
Si      -3.51398106      -0.94744269       0.30837379       0.00000000
Si       3.15765360      -1.99308150      -0.20234209       0.00000000
Si      -2.18914794       2.72948724      -1.45666863       0.00000000
