10
Lattice="16.28999089631971 0.0 0.0 0.0 16.28999089631971 0.0 0.0 0.0 34.71893929493243" Properties=species:S:1:pos:R:3:initial_magmoms:R:1 pbc="T T T"
Si       1.34693865       1.32898106      -1.35398731       0.00000000
Si       1.35405738      -1.35923760       1.35289366       0.00000000
Si      -1.35966114       1.35406301       1.35310198       0.00000000
Si      -1.35599589      -1.36423863      -1.36662154       0.00000000
Si      -0.15864831       2.52535466      -2.65554899       0.00000000
Si       2.50996320      -0.11684817      -2.81990507       0.00000000
Si      -2.79050958      -0.03034827      -2.59068009       0.00000000
Si      -0.00231318       2.71223354       2.71016192       0.00000000
Si       2.71231758      -0.00244350       2.71030079       0.00000000
Si      -0.00180819      -2.71757925       2.70957169       0.00000000
