10
Lattice="16.28999089631971 0.0 0.0 0.0 16.28999089631971 0.0 0.0 0.0 34.71893929493243" Properties=species:S:1:pos:R:3:initial_magmoms:R:1 pbc="T T T"
Si       1.31689663      -1.29429004       1.38733140       0.00000000
Si       0.89674495       1.86063403      -1.16551857       0.00000000
Si      -0.70609005      -1.84037971      -1.33792167       0.00000000
Si      -1.42449909       1.38472168       1.32810780       0.00000000
Si       1.93930495       0.13863767      -2.47073099       0.00000000
Si       0.06466641      -1.08486187      -3.44914596       0.00000000
Si       2.59362538      -2.69435038       0.11461075       0.00000000
Si      -2.68577532      -2.63135695      -0.14318446       0.00000000
Si      -0.05262159      -2.66287810       2.70310355       0.00000000
Si       2.66321626       0.05010478       2.70292996       0.00000000
