10
Lattice="16.28999089631971 0.0 0.0 0.0 16.28999089631971 0.0 0.0 0.0 34.71893929493243" Properties=species:S:1:pos:R:3:initial_magmoms:R:1 pbc="T T T"
Si      -1.28739870       1.38368889      -1.42059563       0.00000000
Si      -1.71968643      -0.88259220       1.42497022       0.00000000
Si       1.44107856      -1.35068535      -1.38546005       0.00000000
Si       1.17863037       1.63753596       1.41413791       0.00000000
Si      -2.47094865       2.83827383       0.07252790       0.00000000
Si      -2.72051145      -2.66134617       0.08669324       0.00000000
Si      -2.64285702       0.01539405      -2.78605756       0.00000000
Si       2.76472251       2.66963778      -0.02218541       0.00000000
Si       0.07320726      -2.69925300      -2.78140522       0.00000000
Si      -3.41949906       1.10384298       1.48312448       0.00000000
