10
Lattice="16.28999089631971 0.0 0.0 0.0 16.28999089631971 0.0 0.0 0.0 34.71893929493243" Properties=species:S:1:pos:R:3:initial_magmoms:R:1 pbc="T T T"
Si       1.36511829      -1.30157100      -1.41101320       0.00000000
Si       1.80436185       1.02186260       1.15586357       0.00000000
Si      -1.58609214      -1.03210182       1.43632332       0.00000000
Si      -1.33092558       1.42741029      -1.38115490       0.00000000
Si       3.51907983      -0.71604324       1.17607001       0.00000000
Si       2.80681587      -2.55261042      -0.09148446       0.00000000
Si       1.42003188       0.79722513       3.43203851       0.00000000
Si       0.02243133      -2.65137669      -2.76446237       0.00000000
Si      -2.76472251      -2.66963778       0.02218541       0.00000000
Si      -2.70537804       2.72636675       0.16036687       0.00000000
