10
Lattice="16.28999089631971 0.0 0.0 0.0 16.28999089631971 0.0 0.0 0.0 34.71893929493243" Properties=species:S:1:pos:R:3:initial_magmoms:R:1 pbc="T T T"
Si       0.57765969       2.11528161      -0.65906999       0.00000000
Si       0.72821187      -0.39076452       2.23968531       0.00000000
Si       0.79211754      -1.56475224      -1.63595733       0.00000000
Si      -2.33460135       0.57412476      -0.26674576       0.00000000
Si       2.65766463       1.58691546      -1.66737799       0.00000000
Si       0.19588725       3.21128747       1.44396149       0.00000000
Si      -3.27898152      -1.53854163       0.16932436       0.00000000
Si       3.08715048      -0.92093886      -1.77747181       0.00000000
Si      -0.34845939      -0.24241149      -3.66309318       0.00000000
Si       0.38908665       1.68973794       3.35808712       0.00000000
