10
Lattice="16.28999089631971 0.0 0.0 0.0 16.28999089631971 0.0 0.0 0.0 34.71893929493243" Properties=species:S:1:pos:R:3:initial_magmoms:R:1 pbc="T T T"
Si       1.65382596       1.05063984      -1.29118821       0.00000000
Si      -1.23354396       1.49284818       1.37370421       0.00000000
Si       1.49654601      -1.22950404       1.39503206       0.00000000
Si      -0.87724908      -1.93494249      -1.17443301       0.00000000
Si       0.29305710       0.94565079      -3.20853664       0.00000000
Si       3.45805749      -0.64666413      -1.31930450       0.00000000
Si      -2.56274280       0.12821859       2.75803589       0.00000000
Si       0.15012864      -2.58276647       2.75852195       0.00000000
Si       2.74277988      -2.61580096      -0.06081026       0.00000000
Si      -2.72191239      -2.77431080       0.10807665       0.00000000
