10
Lattice="16.28999089631971 0.0 0.0 0.0 16.28999089631971 0.0 0.0 0.0 34.71893929493243" Properties=species:S:1:pos:R:3:initial_magmoms:R:1 pbc="T T T"
Si      -1.35640314      -1.35616559       1.35709466       0.00000000
Si       1.35614250       1.35794130       1.35646972       0.00000000
Si      -1.35715248       1.35737115      -1.35678219       0.00000000
Si       1.35747828      -1.35730589      -1.35664331       0.00000000
Si       0.00247608       2.71239941       2.71234921       0.00000000
Si      -0.00070047      -2.71263389       2.71491841       0.00000000
Si      -0.00078192      -2.71409999      -2.71405044       0.00000000
Si       2.71342530       0.00018868      -2.71474482       0.00000000
Si      -2.71450044      -0.00079939      -2.71384213       0.00000000
Si      -0.00115659       2.71367003      -2.71471010       0.00000000
