10
Lattice="16.28999089631971 0.0 0.0 0.0 16.28999089631971 0.0 0.0 0.0 34.71893929493243" Properties=species:S:1:pos:R:3:initial_magmoms:R:1 pbc="T T T"
Si      -1.64533887      -1.57960872      -0.63049629       0.00000000
Si       1.96537221      -0.92895354      -0.99862141       0.00000000
Si      -0.60427755       2.09450304      -1.02521613       0.00000000
Si       0.85040316       0.57471120       2.22833221       0.00000000
Si       2.75661009       1.11076623      -1.94304652       0.00000000
Si      -1.45213947      -3.10115825       1.28362934       0.00000000
Si      -0.18661824       2.62949922       2.56059264       0.00000000
Si       3.17454633       0.66567456       1.78941513       0.00000000
Si       0.78073083       2.19587571      -2.99145492       0.00000000
Si       3.48469164      -1.35407367       0.69923983       0.00000000
