10
Lattice="16.28999089631971 0.0 0.0 0.0 16.28999089631971 0.0 0.0 0.0 34.71893929493243" Properties=species:S:1:pos:R:3:initial_magmoms:R:1 pbc="T T T"
Si       1.34250777       1.35347094       1.37315912       0.00000000
Si      -1.36526653      -1.36638891       1.36753465       0.00000000
Si       1.44313110      -1.28917431      -1.40658653       0.00000000
Si      -1.45368865       1.20761028      -1.49806057       0.00000000
Si      -0.42194358      -2.26799154      -2.49306739       0.00000000
Si      -2.39593483      -0.72003429      -2.78379184       0.00000000
Si       2.68411959       2.71419093      -0.00147208       0.00000000
Si      -2.73182390       2.69734707      -0.02368527       0.00000000
Si       2.70404226      -0.00791694       2.72841367       0.00000000
Si       2.71103067      -2.72319930       0.00705489       0.00000000
