10
Lattice="16.28999089631971 0.0 0.0 0.0 16.28999089631971 0.0 0.0 0.0 34.71893929493243" Properties=species:S:1:pos:R:3:initial_magmoms:R:1 pbc="T T T"
Si      -0.10446777      -1.15575921       2.00866536       0.00000000
Si      -0.52212708      -1.69075539      -1.57714342       0.00000000
Si       2.34434277       0.36243621      -0.16651213       0.00000000
Si      -1.73726334       1.61634267       0.23299893       0.00000000
Si      -2.76578136      -1.19658195      -2.17608017       0.00000000
Si      -3.18034557       1.07621514      -1.62248638       0.00000000
Si       0.93255363      -3.21054723       1.67640492       0.00000000
Si       0.08215047      -3.78525843      -0.55192729       0.00000000
Si      -0.92626569       3.67191261      -0.56685644       0.00000000
Si       0.83142531       0.05408280       3.81405121       0.00000000
