10
Lattice="16.28999089631971 0.0 0.0 0.0 16.28999089631971 0.0 0.0 0.0 34.71893929493243" Properties=species:S:1:pos:R:3:initial_magmoms:R:1 pbc="T T T"
Si      -1.39175244       1.27483911       1.40774962       0.00000000
Si       1.73861541       0.91427625      -1.39364821       0.00000000
Si       1.31978322      -1.47297438       1.41158606       0.00000000
Si      -1.77997572      -1.09905372      -1.23735695       0.00000000
Si       3.36851136      -1.07132814      -1.38351027       0.00000000
Si      -0.02503773       2.60703531       2.78635614       0.00000000
Si       2.80406286       2.59232544      -0.07007327       0.00000000
Si       2.69182476      -0.10744884       2.78736299       0.00000000
Si      -0.99803943      -1.71082467      -3.33770158       0.00000000
Si      -2.85260706       2.65012236      -0.10027530       0.00000000
