10
Lattice="16.28999089631971 0.0 0.0 0.0 16.28999089631971 0.0 0.0 0.0 34.71893929493243" Properties=species:S:1:pos:R:3:initial_magmoms:R:1 pbc="T T T"
Si       1.36078515      -1.35521397      -1.36101790       0.00000000
Si      -1.35628911       1.36047564      -1.36084431       0.00000000
Si      -1.36518345      -1.33481889       1.38108546       0.00000000
Si       1.38043089       1.35907470       1.37202381       0.00000000
Si       0.07483626      -2.66365935       2.67499161       0.00000000
Si      -2.71503801      -2.71422351       0.00152763       0.00000000
Si      -2.71344159       0.00229689      -2.71766121       0.00000000
Si       0.00197109      -2.71282257      -2.71849447       0.00000000
Si       2.71687878      -2.71472850      -0.00656188       0.00000000
Si       2.71785618       2.71433754      -0.00187482       0.00000000
