10
Lattice="16.28999089631971 0.0 0.0 0.0 16.28999089631971 0.0 0.0 0.0 34.71893929493243" Properties=species:S:1:pos:R:3:initial_magmoms:R:1 pbc="T T T"
Si      -1.63615131       1.32815628      -1.11673531       0.00000000
Si      -1.61236791      -0.94074750       1.52509970       0.00000000
Si       0.89290377      -1.79196516      -1.41552667       0.00000000
Si       2.16608130       1.01734308       0.90685920       0.00000000
Si       2.09888505      -0.24482241      -2.70773159       0.00000000
Si       2.27033730      -0.83442267       2.54403170       0.00000000
Si       0.03285693      -1.29720528       3.32225716       0.00000000
Si      -1.64033784       3.40239456       0.61476860       0.00000000
Si      -0.68303970       2.56041333      -2.79866054       0.00000000
Si      -2.58168807      -2.99853288       0.16998402       0.00000000
