10
Lattice="16.28999089631971 0.0 0.0 0.0 16.28999089631971 0.0 0.0 0.0 34.71893929493243" Properties=species:S:1:pos:R:3:initial_magmoms:R:1 pbc="T T T"
Si      -1.44852309       0.71863335       1.66522542       0.00000000
Si      -1.01972142      -0.99468369      -1.90457792       0.00000000
Si      -0.19490985       1.94153994      -1.39469529       0.00000000
Si       1.81967445      -0.85131540       1.39816719       0.00000000
Si       1.71947466       2.89750230      -0.54026172       0.00000000
Si      -2.53263888      -1.30303710       2.07598542       0.00000000
Si      -0.36279459       0.73617768      -3.43443411       0.00000000
Si       1.88289594       0.83753406       3.03402036       0.00000000
Si       0.17260884      -2.94418944      -2.24662910       0.00000000
Si      -2.26681866       2.79513594       0.91467097       0.00000000
