10
Lattice="16.28999089631971 0.0 0.0 0.0 16.28999089631971 0.0 0.0 0.0 34.71893929493243" Properties=species:S:1:pos:R:3:initial_magmoms:R:1 pbc="T T T"
Si       1.26607509       1.84757922       0.47564973       0.00000000
Si       0.00350235       0.19500759      -2.31016479       0.00000000
Si       0.81829557      -2.07650259       0.75055445       0.00000000
Si      -1.21696074       1.85857497       1.10600715       0.00000000
Si       2.07190881      -0.85359600      -2.30936626       0.00000000
Si      -1.25231004       0.74582136       3.14984281       0.00000000
Si      -3.33330867       1.36373364       0.10065026       0.00000000
Si       2.26681866      -2.79513594      -0.91467097       0.00000000
Si       1.87429482      -1.73908782       2.81841563       0.00000000
Si       1.06683210       0.32687514       3.66653035       0.00000000
