10
Lattice="16.28999089631971 0.0 0.0 0.0 16.28999089631971 0.0 0.0 0.0 34.71893929493243" Properties=species:S:1:pos:R:3:initial_magmoms:R:1 pbc="T T T"
Si      -0.71226396      -1.83656718      -1.26755446       0.00000000
Si       1.86426018       0.86171381      -1.16964700       0.00000000
Si      -1.71471798       1.73790584      -0.02020643       0.00000000
Si      -1.66956210      -0.99458595       2.14587468       0.00000000
Si      -2.15396154      -0.58552776      -2.58708321       0.00000000
Si       0.57480894       2.16495144      -2.58527782       0.00000000
Si      -2.09904795       1.51326837       2.25596850       0.00000000
Si      -1.66537557      -3.06882423       0.41437077       0.00000000
Si      -3.51907983       0.71604324      -1.17607001       0.00000000
Si      -0.70542216       3.60690641      -1.14753102       0.00000000
