10
Lattice="16.28999089631971 0.0 0.0 0.0 16.28999089631971 0.0 0.0 0.0 34.71893929493243" Properties=species:S:1:pos:R:3:initial_magmoms:R:1 pbc="T T T"
Si       1.33792069       1.33307260      -1.37277374       0.00000000
Si      -1.35913986       1.35348397       1.35622668       0.00000000
Si       1.35604679      -1.36181764       1.35817095       0.00000000
Si      -1.35575154      -1.35799371      -1.39267812       0.00000000
Si       2.70979819      -2.71452717       0.00222201       0.00000000
Si      -0.00117288       2.71187449       2.71436291       0.00000000
Si       2.71584178       2.71058758      -0.00579807       0.00000000
Si      -2.71678104       2.70985453      -0.00118044       0.00000000
Si       2.71399449      -0.00309673       2.71443235       0.00000000
Si      -2.71652040      -0.00249563       2.71453650       0.00000000
