10
Lattice="16.28999089631971 0.0 0.0 0.0 16.28999089631971 0.0 0.0 0.0 34.71893929493243" Properties=species:S:1:pos:R:3:initial_magmoms:R:1 pbc="T T T"
Si       1.35764118      -1.35637056       1.35740713       0.00000000
Si      -1.35725022       1.35837423       1.35747657       0.00000000
Si      -1.36684503      -1.35534429      -1.36300382       0.00000000
Si       1.36342413       1.36946772      -1.36078875       0.00000000
Si       2.60040528      -0.05362668      -2.77747503       0.00000000
Si      -0.06371019       2.64639195      -2.77101036       0.00000000
Si      -2.71326240      -2.70860672       0.00048607       0.00000000
Si       2.71678104      -2.70985453       0.00118044       0.00000000
Si       0.00026064      -2.71235016       2.71571695       0.00000000
Si      -2.71378368       0.00151497       2.71578639       0.00000000
