10
Lattice="16.28999089631971 0.0 0.0 0.0 16.28999089631971 0.0 0.0 0.0 34.71893929493243" Properties=species:S:1:pos:R:3:initial_magmoms:R:1 pbc="T T T"
Si      -1.35796698       1.35759965      -1.35705994       0.00000000
Si       1.35793440      -1.35835779      -1.35674747       0.00000000
Si      -1.35677781      -1.35821118       1.35917780       0.00000000
Si       1.35834165       1.35932313       1.35730297       0.00000000
Si       2.71460021      -0.00172236      -2.71342550       0.00000000
Si      -0.00058644       2.71357925      -2.71536976       0.00000000
Si      -2.71518462       2.71475213       0.00010416       0.00000000
Si       2.71537448       2.71467068      -0.00052078       0.00000000
Si      -0.00223173       2.71561550       2.71502257       0.00000000
Si      -2.71547784      -2.71533108       0.00006944       0.00000000
