10
Lattice="16.28999089631971 0.0 0.0 0.0 16.28999089631971 0.0 0.0 0.0 34.71893929493243" Properties=species:S:1:pos:R:3:initial_magmoms:R:1 pbc="T T T"
Si       1.35613340      -1.35720966      -1.36442036       0.00000000
Si      -1.35853713       1.36172559      -1.36376070       0.00000000
Si      -1.36616085      -1.35191541       1.38851532       0.00000000
Si       1.36131687       1.36392148       1.38243950       0.00000000
Si       2.71235735      -2.71379199      -0.00579807       0.00000000
Si       2.71401893       2.71580252      -0.00534672       0.00000000
Si      -2.71541268      -2.71597485      -0.00458290       0.00000000
Si       2.71348136       0.00149212      -2.72106367       0.00000000
Si      -0.00112560      -2.71369425      -2.72127198       0.00000000
Si      -2.71911051       2.71801796      -0.00604110       0.00000000
