10
Lattice="16.28999089631971 0.0 0.0 0.0 16.28999089631971 0.0 0.0 0.0 34.71893929493243" Properties=species:S:1:pos:R:3:initial_magmoms:R:1 pbc="T T T"
Si       1.36743147       1.34486982      -1.37535683       0.00000000
Si      -1.34700381      -1.37080350      -1.38202287       0.00000000
Si       1.34456031      -1.35246096       1.40393053       0.00000000
Si      -1.35646830       1.52295210       1.48072887       0.00000000
Si      -2.69138493       2.70233181      -0.03523974       0.00000000
Si      -2.70405855      -2.69946151      -0.02711551       0.00000000
Si      -0.07863183      -2.65858990       2.74543638       0.00000000
Si       2.52626527       0.08892711       2.87840999       0.00000000
Si       2.72478987       2.70251100       0.01826217       0.00000000
Si       0.01252701       2.70159876      -2.73922168       0.00000000
