10
Lattice="16.28999089631971 0.0 0.0 0.0 16.28999089631971 0.0 0.0 0.0 34.71893929493243" Properties=species:S:1:pos:R:3:initial_magmoms:R:1 pbc="T T T"
Si       0.57216996      -1.53159883      -1.63939451       0.00000000
Si      -1.39043295       1.84406058       0.38461662       0.00000000
Si      -0.74209095      -1.67754583       1.50076171       0.00000000
Si       1.92318111       1.42574967       0.70837091       0.00000000
Si       1.72784772       0.40265622       2.83445579       0.00000000
Si       0.47754135      -3.39303500       0.50536916       0.00000000
Si       0.37286181       3.17262411       1.53752909       0.00000000
Si       1.99536210      -0.22546989      -2.98090036       0.00000000
Si      -2.58761763       1.88410140      -1.71747745       0.00000000
Si      -0.11976408      -0.83737116       3.57115737       0.00000000
