10
Lattice="16.28999089631971 0.0 0.0 0.0 16.28999089631971 0.0 0.0 0.0 34.71893929493243" Properties=species:S:1:pos:R:3:initial_magmoms:R:1 pbc="T T T"
Si      -1.28945124       1.30323763      -1.41563082       0.00000000
Si       1.33597548       1.34410924       1.35692106       0.00000000
Si      -1.86426018      -0.86171381       1.16964700       0.00000000
Si       1.42055316      -1.43803772      -1.37598177       0.00000000
Si      -2.57652414      -2.69828099      -0.09790746       0.00000000
Si       1.24134687      -0.51732692       3.50168474       0.00000000
Si      -2.56968234       2.74519259       0.02211598       0.00000000
Si       0.06760350       2.63189564      -2.77053819       0.00000000
Si       2.75916762       2.65023818       0.01541522       0.00000000
Si      -2.64951963      -0.08061985      -2.76807314       0.00000000
