10
Lattice="16.28999089631971 0.0 0.0 0.0 16.28999089631971 0.0 0.0 0.0 34.71893929493243" Properties=species:S:1:pos:R:3:initial_magmoms:R:1 pbc="T T T"
Si       0.62232687       0.84017467       2.07039566       0.00000000
Si       1.21963230      -1.71548917      -0.99539255       0.00000000
Si      -2.28662730      -0.25568295       0.49450213       0.00000000
Si       0.74209095       1.67754583      -1.50076171       0.00000000
Si      -0.07346790      -3.28670854       0.46110249       0.00000000
Si       1.31426091       0.14594700      -3.14015622       0.00000000
Si       2.46993867       2.08020205       1.33369408       0.00000000
Si      -2.36582928      -2.64582736       0.88495154       0.00000000
Si      -2.83608900       1.72841950       1.67175258       0.00000000
Si       2.26712817      -0.62808050       2.91913533       0.00000000
