10
Lattice="16.28999089631971 0.0 0.0 0.0 16.28999089631971 0.0 0.0 0.0 34.71893929493243" Properties=species:S:1:pos:R:3:initial_magmoms:R:1 pbc="T T T"
Si      -0.71527761      -1.96913683       1.25849424       0.00000000
Si      -1.80423153       1.69730397       0.02811629       0.00000000
Si       2.00573883       0.71887770       1.29986535       0.00000000
Si      -0.11272680      -0.17125677      -2.92430845       0.00000000
Si       2.51703306       0.66284010      -2.14618715       0.00000000
Si      -1.96151148      -0.58283991       2.71433656       0.00000000
Si      -2.43910170      -0.62400474      -2.36404862       0.00000000
Si       0.76875768       2.14197210       2.71655163       0.00000000
Si      -0.65837664       3.41889633       1.30633002       0.00000000
Si      -3.45805749       0.64666413       1.31930450       0.00000000
