10
Lattice="16.28999089631971 0.0 0.0 0.0 16.28999089631971 0.0 0.0 0.0 34.71893929493243" Properties=species:S:1:pos:R:3:initial_magmoms:R:1 pbc="T T T"
Si       1.35643572      -1.35560493      -1.35869173       0.00000000
Si       1.35676152       1.35728280       1.35709466       0.00000000
Si      -1.35796698      -1.35733167       1.35719881       0.00000000
Si      -1.35772263       1.35827649      -1.35855285       0.00000000
Si       0.00472410      -2.70550836      -2.71927217       0.00000000
Si      -0.00343719       2.70835911      -2.71778967       0.00000000
Si       2.71296918       2.71516833       0.00010416       0.00000000
Si       0.00019548       2.71414206       2.71408516       0.00000000
Si       2.71423295      -0.00006516       2.71464066       0.00000000
Si       2.71388142      -2.71511946      -0.00059022       0.00000000
