10
Lattice="16.28999089631971 0.0 0.0 0.0 16.28999089631971 0.0 0.0 0.0 34.71893929493243" Properties=species:S:1:pos:R:3:initial_magmoms:R:1 pbc="T T T"
Si      -2.27706507      -0.45030447       0.27473112       0.00000000
Si       1.18561878       1.89957690       0.79402259       0.00000000
Si       1.00338255      -1.06777692       1.93898441       0.00000000
Si       0.18482634      -0.45569646      -2.40223947       0.00000000
Si       1.46764755       1.06305282       2.96041617       0.00000000
Si       3.23339300       1.34483724      -0.35757056       0.00000000
Si       2.62199020      -2.29439763       0.73503507       0.00000000
Si       0.65914227       1.74632058      -3.06554518       0.00000000
Si       1.53981225      -3.22566435      -1.10531277       0.00000000
Si      -2.97497754      -1.53772713      -1.71167938       0.00000000
