10
Lattice="16.28999089631971 0.0 0.0 0.0 16.28999089631971 0.0 0.0 0.0 34.71893929493243" Properties=species:S:1:pos:R:3:initial_magmoms:R:1 pbc="T T T"
Si      -0.01638774       0.68722623       2.25582962       0.00000000
Si      -0.18120996       1.87364322      -1.42153304       0.00000000
Si       1.91505240      -1.35182565      -0.37298577       0.00000000
Si      -2.30932646      -0.65575395      -0.48984979       0.00000000
Si      -1.05544050      -0.86558544      -2.70464160       0.00000000
Si      -2.50465985      -1.67884740       1.63623509       0.00000000
Si       3.30564825       0.57355461      -1.02247333       0.00000000
Si       2.21547258       0.31068288       2.82945626       0.00000000
Si       1.86709464       1.66359996      -2.67058230       0.00000000
Si      -1.02278557       3.52230525       0.07579149       0.00000000
