10
Lattice="16.28999089631971 0.0 0.0 0.0 16.28999089631971 0.0 0.0 0.0 34.71893929493243" Properties=species:S:1:pos:R:3:initial_magmoms:R:1 pbc="T T T"
Si       0.86464129       1.75591539      -1.45771020       0.00000000
Si       1.03789196       0.40298202       2.21600698       0.00000000
Si       1.68878660      -1.85811885      -0.01413062       0.00000000
Si      -1.82262294      -1.01296107      -1.53766796       0.00000000
Si      -1.75542669       0.24920442       2.07692283       0.00000000
Si       2.11088005       0.33923925      -2.92923855       0.00000000
Si       3.39339338      -0.98609886      -1.42823380       0.00000000
Si      -0.58842738      -2.38449762      -2.95326406       0.00000000
Si       2.69440577       2.77909029      -0.03180257       0.00000000
Si       0.68286051      -3.62708253      -1.40695108       0.00000000
