10
Lattice="16.28999089631971 0.0 0.0 0.0 16.28999089631971 0.0 0.0 0.0 34.71893929493243" Properties=species:S:1:pos:R:3:initial_magmoms:R:1 pbc="T T T"
Si      -0.47602638       0.96726762       2.05303618       0.00000000
Si       0.62042094      -2.24929062       0.24417844       0.00000000
Si      -2.07163188      -0.11184714      -1.18770086       0.00000000
Si       1.71960498       1.15882173      -1.26467279       0.00000000
Si       1.26574929      -2.71826343      -1.97953615       0.00000000
Si      -1.80403605       1.82773800      -2.54451776       0.00000000
Si       0.47138373       1.60922394      -3.24358400       0.00000000
Si      -1.84467960      -0.46581255       3.26882468       0.00000000
Si       1.63152495       1.12700736       3.22303037       0.00000000
Si      -1.31520573      -3.55366350       0.69750388       0.00000000
