10
Lattice="16.28999089631971 0.0 0.0 0.0 16.28999089631971 0.0 0.0 0.0 34.71893929493243" Properties=species:S:1:pos:R:3:initial_magmoms:R:1 pbc="T T T"
Si       0.47602638      -0.96726762      -2.05303618       0.00000000
Si      -1.36865322      -1.43308017       1.21578850       0.00000000
Si      -1.68624306       1.61658702       0.58032739       0.00000000
Si       2.10755133       0.15973974       1.16999419       0.00000000
Si      -0.04838130      -0.73788813       3.20157406       0.00000000
Si      -1.59560550      -1.07911476      -3.24073704       0.00000000
Si      -1.67827725       1.24771626       3.19143612       0.00000000
Si       1.09644732      -3.21655824      -1.80885775       0.00000000
Si      -3.81778956       0.52704666      -0.15189544       0.00000000
Si      -2.37097692      -3.04517115      -0.26494037       0.00000000
