10
Lattice="16.28999089631971 0.0 0.0 0.0 16.28999089631971 0.0 0.0 0.0 34.71893929493243" Properties=species:S:1:pos:R:3:initial_magmoms:R:1 pbc="T T T"
Si       1.82115684       0.73435320       1.32213267       0.00000000
Si      -0.76857034      -2.26724220       0.18699631       0.00000000
Si      -1.54317125       1.43057151       1.16037704       0.00000000
Si       0.89700885      -0.29822103      -2.22937378       0.00000000
Si      -1.00438276       0.45659241       3.27253961       0.00000000
Si       1.44531396      -3.22745951       0.04694003       0.00000000
Si       2.48181408      -2.02970142      -1.76629230       0.00000000
Si       2.08411002       3.03758001       0.71239831       0.00000000
Si      -1.96585602      -2.64616389      -1.81246852       0.00000000
Si      -0.69665977      -1.87626591       3.33055499       0.00000000
