10
Lattice="16.28999089631971 0.0 0.0 0.0 16.28999089631971 0.0 0.0 0.0 34.71893929493243" Properties=species:S:1:pos:R:3:initial_magmoms:R:1 pbc="T T T"
Si       0.04281012       1.70598654      -1.61894504       0.00000000
Si      -2.29765563       0.31703598       0.55473952       0.00000000
Si       1.76700888       0.06390567       1.60766138       0.00000000
Si       0.36504261      -1.98151560      -1.31400843       0.00000000
Si       3.39062571       0.83728971       0.01038097       0.00000000
Si       2.32777651       2.20547052      -1.69060497       0.00000000
Si      -3.31846848       0.13014081      -1.54641714       0.00000000
Si      -0.43482897      -3.67504029       0.09728252       0.00000000
Si      -0.74041308       0.73099746      -3.61844459       0.00000000
Si      -0.59825025      -1.61507205      -3.47699956       0.00000000
