10
Lattice="16.28999089631971 0.0 0.0 0.0 16.28999089631971 0.0 0.0 0.0 34.71893929493243" Properties=species:S:1:pos:R:3:initial_magmoms:R:1 pbc="T T T"
Si      -1.80154924      -0.70071435       1.37846908       0.00000000
Si       0.94224618       1.92764457       1.28573127       0.00000000
Si       1.97399125      -1.54795725       0.29072445       0.00000000
Si      -1.29025501      -0.75675195      -2.06758343       0.00000000
Si      -0.34725279      -2.02386960       2.78435082       0.00000000
Si       2.39593483       0.72003429       2.78379184       0.00000000
Si      -0.71852488       0.99851184      -3.56424830       0.00000000
Si       1.07724630      -3.40859128       1.45624302       0.00000000
Si       2.14876666       3.37388706      -0.32420564       0.00000000
Si       0.32109708       3.18645432      -2.46567101       0.00000000
