10
Lattice="16.28999089631971 0.0 0.0 0.0 16.28999089631971 0.0 0.0 0.0 34.71893929493243" Properties=species:S:1:pos:R:3:initial_magmoms:R:1 pbc="T T T"
Si       1.48861278       0.74371995      -1.62536805       0.00000000
Si      -0.44681841      -2.18996244      -0.69823298       0.00000000
Si      -2.04607287       1.19166237      -0.45631127       0.00000000
Si       0.46753929      -0.05776434       2.39140716       0.00000000
Si       0.38274984       0.02938716      -3.61681280       0.00000000
Si      -3.30610111       0.38182131       1.57106760       0.00000000
Si       0.11979666      -2.27383965      -3.00707845       0.00000000
Si       1.99127331       1.88902098       2.63746042       0.00000000
Si      -2.70574294      -2.55160044      -1.05667151       0.00000000
Si       1.73706786       3.08954511      -1.54600051       0.00000000
