10
Lattice="16.28999089631971 0.0 0.0 0.0 16.28999089631971 0.0 0.0 0.0 34.71893929493243" Properties=species:S:1:pos:R:3:initial_magmoms:R:1 pbc="T T T"
Si      -1.35731538       1.35698958       1.35945555       0.00000000
Si       1.36212093       1.35200484      -1.35971247       0.00000000
Si       1.35685926      -1.35878148       1.35903892       0.00000000
Si      -1.36526490      -1.36552554      -1.36227820       0.00000000
Si      -0.07239276       2.68589520      -2.58377102       0.00000000
Si      -2.77616135       0.01585017      -2.64619223       0.00000000
Si      -2.71493375      -2.71230129      -0.00097213       0.00000000
Si       0.00042354       2.71407690       2.71703627       0.00000000
Si      -2.71451021      -0.00110772       2.71679324       0.00000000
Si       2.71630863      -0.00133578       2.71648077       0.00000000
