10
Lattice="16.28999089631971 0.0 0.0 0.0 16.28999089631971 0.0 0.0 0.0 34.71893929493243" Properties=species:S:1:pos:R:3:initial_magmoms:R:1 pbc="T T T"
Si       1.35695700      -1.35690161      -1.35851813       0.00000000
Si      -1.35784643       1.35852084      -1.35747657       0.00000000
Si       1.35723393       1.33941267       1.38358522       0.00000000
Si      -1.35270205      -1.35188104       1.38778622       0.00000000
Si       2.71409319       0.00081450      -2.71536976       0.00000000
Si       2.71334385      -2.71626695       0.00118044       0.00000000
Si      -2.71401893      -2.71580252       0.00534672       0.00000000
Si      -0.00053757      -2.71431040      -2.71571695       0.00000000
Si      -0.00102627       2.71598283      -2.71571695       0.00000000
Si      -2.71552323       0.00127062      -2.71623773       0.00000000
