10
Lattice="16.28999089631971 0.0 0.0 0.0 16.28999089631971 0.0 0.0 0.0 34.71893929493243" Properties=species:S:1:pos:R:3:initial_magmoms:R:1 pbc="T T T"
Si       1.35725900       1.35648459       1.35685162       0.00000000
Si       1.35672794      -1.35681039      -1.35709466       0.00000000
Si      -1.35781878       1.35773892      -1.35653915       0.00000000
Si      -1.35773733      -1.35772263       1.35744185       0.00000000
Si      -0.00115296       2.71437434      -2.71321718       0.00000000
Si      -0.00231159      -2.71379997      -2.71398100       0.00000000
Si       2.71408568      -2.71389771       0.00065966       0.00000000
Si       2.71392278       0.00128691      -2.71443235       0.00000000
Si      -0.00128532      -2.71498914       2.71349494       0.00000000
Si       2.71348295      -0.00009774       2.71547392       0.00000000
