10
Lattice="16.28999089631971 0.0 0.0 0.0 16.28999089631971 0.0 0.0 0.0 34.71893929493243" Properties=species:S:1:pos:R:3:initial_magmoms:R:1 pbc="T T T"
Si      -0.98013183      -1.81555308      -1.09614696       0.00000000
Si      -0.45590823       1.91925522      -1.25456957       0.00000000
Si      -0.76444409      -0.20214261       2.23687307       0.00000000
Si       2.34398928      -0.20188197       0.41947446       0.00000000
Si       0.73657353      -3.29015646      -0.49623808       0.00000000
Si       0.67638198       0.56055519      -3.34395651       0.00000000
Si      -2.80470047       1.75469364      -1.34115866       0.00000000
Si      -2.82486749       0.81262665       2.02661506       0.00000000
Si      -0.33795397       3.51070418       0.69663591       0.00000000
Si       2.78960223      -2.14749441      -1.11215240       0.00000000
