10
Lattice="10.86 0.0 0.0 0.0 10.86 0.0 0.0 0.0 10.86" Properties=species:S:1:pos:R:3:initial_magmoms:R:1 pbc="T T T"
Si      -1.28535702       1.10199678      -1.46459046       0.00000000
Si      -1.28535702      -1.61300322       1.25040954       0.00000000
Si       1.72018056       1.78135494       0.62636136       0.00000000
Si       1.42964298      -1.61300322      -1.46459046       0.00000000
Si       0.17743068       2.48442048       2.38985160       0.00000000
Si       2.60546604      -0.04345086       2.45542428       0.00000000
Si      -2.64285702       2.45949678      -0.10709046       0.00000000
Si      -2.64285702      -0.25550322       2.60790954       0.00000000
Si      -0.08661936       2.30422050      -3.04428606       0.00000000
Si      -2.64285702      -0.25550322      -2.82209046       0.00000000
