10
Lattice="10.86 0.0 0.0 0.0 10.86 0.0 0.0 0.0 10.86" Properties=species:S:1:pos:R:3:initial_magmoms:R:1 pbc="T T T"
Si      -0.91973340      -1.41256020       1.43557254       0.00000000
Si       1.61474082      -0.90069582      -1.32216156       0.00000000
Si      -1.10025918       1.81430418      -1.32216156       0.00000000
Si       1.61474082       1.81430418       1.39283844       0.00000000
Si       0.25724082      -2.25819582      -2.67966156       0.00000000
Si      -2.61652152      -2.41347210      -0.18685716       0.00000000
Si      -2.33074062       0.18594492       2.70081684       0.00000000
Si      -2.45775918       0.45680418      -2.67966156       0.00000000
Si       3.20905398      -2.12442234      -0.11618028       0.00000000
Si       2.92124226       0.36108414       2.58639588       0.00000000
