10
Lattice="10.86 0.0 0.0 0.0 10.86 0.0 0.0 0.0 10.86" Properties=species:S:1:pos:R:3:initial_magmoms:R:1 pbc="T T T"
Si      -1.20758856      -1.28504208       1.31081286       0.00000000
Si      -1.20758856       1.42995792      -1.40418714       0.00000000
Si       1.50741144       1.42995792       1.31081286       0.00000000
Si      -2.45980086      -2.61761838      -0.26474508       0.00000000
Si      -2.56508856       0.07245792       2.66831286       0.00000000
Si      -2.43807000      -0.19840134      -2.81120874       0.00000000
Si       0.14991144      -2.64254208       2.66831286       0.00000000
Si      -2.56508856       2.78745792      -0.04668714       0.00000000
Si       0.14991144       2.78745792       2.66831286       0.00000000
Si       2.86491144       0.07245792       2.66831286       0.00000000
