10
Lattice="10.86 0.0 0.0 0.0 10.86 0.0 0.0 0.0 10.86" Properties=species:S:1:pos:R:3:initial_magmoms:R:1 pbc="T T T"
Si       1.87561974      -0.24767316       1.58331198       0.00000000
Si       2.16837276       0.48017490      -1.54657260       0.00000000
Si      -2.22985122      -1.55406600       0.18245886       0.00000000
Si      -0.59067540       2.22140214       1.55366418       0.00000000
Si       0.48514878      -1.55406600      -2.53254114       0.00000000
Si       0.48514878      -1.55406600       2.89745886       0.00000000
Si      -0.87235122      -2.91156600       1.53995886       0.00000000
Si       3.20014878      -1.55406600       0.18245886       0.00000000
Si      -2.22985122       1.16093400      -2.53254114       0.00000000
Si       1.84264878      -2.91156600      -1.17504114       0.00000000
