10
Lattice="10.86 0.0 0.0 0.0 10.86 0.0 0.0 0.0 10.86" Properties=species:S:1:pos:R:3:initial_magmoms:R:1 pbc="T T T"
Si      -1.05423450      -1.80909138      -0.45288372       0.00000000
Si       1.89726372       0.94766532      -0.62371152       0.00000000
Si      -0.98659842       0.84879588       2.10774138       0.00000000
Si       0.44457582       2.26882776      -1.82332884       0.00000000
Si      -2.27042418      -0.44617224      -1.82332884       0.00000000
Si      -2.27042418       2.26882776       0.89167116       0.00000000
Si      -0.91292418       0.91132776      -3.18082884       0.00000000
Si       3.15957582      -0.44617224      -1.82332884       0.00000000
Si       0.44457582      -3.16117224      -1.82332884       0.00000000
Si      -0.91292418       3.62632776      -0.46582884       0.00000000
