10
Lattice="10.86 0.0 0.0 0.0 10.86 0.0 0.0 0.0 10.86" Properties=species:S:1:pos:R:3:initial_magmoms:R:1 pbc="T T T"
Si      -1.63917582      -1.06046814       1.34379468       0.00000000
Si       1.07582418       1.65453186       1.34379468       0.00000000
Si      -1.63917582       1.65453186      -1.37120532       0.00000000
Si       0.59067540      -2.22140214      -1.55366418       0.00000000
Si       2.46629514      -2.46907530       0.02964780       0.00000000
Si      -0.28167582      -2.41796814       2.70129468       0.00000000
Si       2.43332418       0.29703186       2.70129468       0.00000000
Si      -2.99667582      -2.41796814      -0.01370532       0.00000000
Si       2.35096194       3.11638560       0.14043066       0.00000000
Si      -2.99667582       0.29703186       2.70129468       0.00000000
