10
Lattice="10.86 0.0 0.0 0.0 10.86 0.0 0.0 0.0 10.86" Properties=species:S:1:pos:R:3:initial_magmoms:R:1 pbc="T T T"
Si       1.43986224       1.25314626       1.20336402       0.00000000
Si      -1.27513776      -1.46185374       1.20336402       0.00000000
Si      -1.27513776       1.25314626      -1.51163598       0.00000000
Si       0.08236224       2.61064626       2.56086402       0.00000000
Si      -2.63263776      -0.10435374       2.56086402       0.00000000
Si      -2.63263776       2.61064626      -0.15413598       0.00000000
Si       2.79736224      -0.10435374       2.56086402       0.00000000
Si       0.08236224      -2.81935374       2.56086402       0.00000000
Si       2.79736224       2.61064626      -0.15413598       0.00000000
Si       0.08236224       2.61064626      -2.86913598       0.00000000
