10
Lattice="10.86 0.0 0.0 0.0 10.86 0.0 0.0 0.0 10.86" Properties=species:S:1:pos:R:3:initial_magmoms:R:1 pbc="T T T"
Si      -1.36220238      -1.33936380       1.23739926       0.00000000
Si       1.35366642       1.66982274       0.88800048       0.00000000
Si       1.35279762      -1.33936380      -1.47760074       0.00000000
Si      -1.36220238       1.37563620      -1.47760074       0.00000000
Si       2.60624796      -0.08139570       2.59138062       0.00000000
Si      -0.00470238      -2.69686380       2.59489926       0.00000000
Si      -2.71970238       0.01813620       2.59489926       0.00000000
Si       2.60270760       0.24504504      -2.73640506       0.00000000
Si      -0.00258468       2.81134992       2.54533422       0.00000000
Si       2.71029762      -2.69686380      -0.12010074       0.00000000
