10
Lattice="10.86 0.0 0.0 0.0 10.86 0.0 0.0 0.0 10.86" Properties=species:S:1:pos:R:3:initial_magmoms:R:1 pbc="T T T"
Si      -1.17501942      -1.22442156       1.32642954       0.00000000
Si      -1.17501942       1.49057844      -1.38857046       0.00000000
Si       1.53998058       1.49057844       1.32642954       0.00000000
Si      -2.53040172      -2.50370784      -0.08063550       0.00000000
Si      -2.59098966       0.17955924      -2.43890622       0.00000000
Si      -2.53251942       0.13307844       2.68392954       0.00000000
Si       0.18248058      -2.58192156       2.68392954       0.00000000
Si      -2.53251942       2.84807844      -0.03107046       0.00000000
Si      -1.31925108      -1.43439966      -3.34556418       0.00000000
Si       0.18248058       2.84807844       2.68392954       0.00000000
