10
Lattice="10.86 0.0 0.0 0.0 10.86 0.0 0.0 0.0 10.86" Properties=species:S:1:pos:R:3:initial_magmoms:R:1 pbc="T T T"
Si       1.30441632       1.03463220       1.49063274       0.00000000
Si       1.30441632      -1.68036780      -1.22436726       0.00000000
Si      -1.41058368      -1.68036780       1.49063274       0.00000000
Si      -1.36749120       1.59666978      -1.62421074       0.00000000
Si      -2.53284522       2.36812074       0.15884922       0.00000000
Si       2.72591430      -0.39103602      -2.36055132       0.00000000
Si      -2.52952206      -0.06266220      -2.60531400       0.00000000
Si       2.79034668       2.33535612       0.26890446       0.00000000
Si      -0.05308368       2.39213220       2.84813274       0.00000000
Si       2.66191632      -0.32286780       2.84813274       0.00000000
