10
Lattice="10.86 0.0 0.0 0.0 10.86 0.0 0.0 0.0 10.86" Properties=species:S:1:pos:R:3:initial_magmoms:R:1 pbc="T T T"
Si      -1.42149798      -1.28933178       1.13618406       0.00000000
Si       1.29350202       1.42566822       1.13618406       0.00000000
Si       1.29350202      -1.28933178      -1.57881594       0.00000000
Si      -2.72591430       0.39103602       2.36055132       0.00000000
Si      -0.06399798      -2.64683178       2.49368406       0.00000000
Si       2.65100202       0.06816822       2.49368406       0.00000000
Si       2.65100202      -2.64683178      -0.22131594       0.00000000
Si       0.06443238       2.72639214       2.62945578       0.00000000
Si      -2.77899798      -2.64683178      -0.22131594       0.00000000
Si       2.65100202       2.78316822      -0.22131594       0.00000000
