10
Lattice="10.86 0.0 0.0 0.0 10.86 0.0 0.0 0.0 10.86" Properties=species:S:1:pos:R:3:initial_magmoms:R:1 pbc="T T T"
Si      -1.30571952       1.68764400       1.14972648       0.00000000
Si       1.21292082       1.58225856      -1.61145024       0.00000000
Si      -1.53667914      -1.13599944      -1.74383364       0.00000000
Si       0.03141798      -1.85437758       1.91169666       0.00000000
Si      -2.72667450       0.29858484       2.31154014       0.00000000
Si      -2.72667450      -2.41641516      -0.40345986       0.00000000
Si      -0.01167450       3.01358484       2.31154014       0.00000000
Si      -1.13061288      -3.51370956       0.93059340       0.00000000
Si      -0.01167450      -2.41641516      -3.11845986       0.00000000
Si      -1.13393604      -1.08292662       3.69475662       0.00000000
