10
Lattice="10.86 0.0 0.0 0.0 10.86 0.0 0.0 0.0 10.86" Properties=species:S:1:pos:R:3:initial_magmoms:R:1 pbc="T T T"
Si      -1.42023822       1.22845062      -1.26706878       0.00000000
Si       1.29476178       1.22845062       1.44793122       0.00000000
Si       1.29476178      -1.48654938      -1.26706878       0.00000000
Si       0.01762578       2.38750584       2.80578960       0.00000000
Si      -0.06273822       2.58595062      -2.62456878       0.00000000
Si       2.65226178       2.58595062       0.09043122       0.00000000
Si       2.65226178      -0.12904938      -2.62456878       0.00000000
Si      -2.77773822      -0.12904938      -2.62456878       0.00000000
Si      -2.91064290       2.51212434       0.23994084       0.00000000
Si       2.65226178      -0.12904938       2.80543122       0.00000000
