10
Lattice="10.86 0.0 0.0 0.0 10.86 0.0 0.0 0.0 10.86" Properties=species:S:1:pos:R:3:initial_magmoms:R:1 pbc="T T T"
Si      -1.23735582      -1.40332920      -1.41311406       0.00000000
Si       1.47764418      -1.40332920       1.30188594       0.00000000
Si       1.47764418       1.31167080      -1.41311406       0.00000000
Si      -2.54691978       2.55928932       0.04651338       0.00000000
Si       0.02612916       2.61590250       2.56015812       0.00000000
Si      -2.59485582      -2.76082920      -0.05561406       0.00000000
Si      -2.59485582      -0.04582920      -2.77061406       0.00000000
Si      -2.63681886      -0.17228304       2.73003024       0.00000000
Si       0.12014418      -2.76082920       2.65938594       0.00000000
Si       0.12014418       2.66917080      -2.77061406       0.00000000
