10
Lattice="10.86 0.0 0.0 0.0 10.86 0.0 0.0 0.0 10.86" Properties=species:S:1:pos:R:3:initial_magmoms:R:1 pbc="T T T"
Si       1.35750000       1.35750000       1.35750000       0.00000000
Si      -1.35750000      -1.35750000       1.35750000       0.00000000
Si      -1.35750000       1.35750000      -1.35750000       0.00000000
Si       1.35750000      -1.35750000      -1.35750000       0.00000000
Si       0.14422080      -2.60698644      -2.60229492       0.00000000
Si      -0.09883686       2.61240558      -2.60616108       0.00000000
Si      -0.02889846       2.76316410       2.51025642       0.00000000
Si      -2.48370372      -0.01392252       2.84667750       0.00000000
Si       0.08673882      -2.63815464       2.71446786       0.00000000
Si       2.85108666      -0.23649822      -2.52238704       0.00000000
