10
Lattice="10.86 0.0 0.0 0.0 10.86 0.0 0.0 0.0 10.86" Properties=species:S:1:pos:R:3:initial_magmoms:R:1 pbc="T T T"
Si       1.27076118      -1.43434536      -1.35696786       0.00000000
Si      -1.44423882       1.28065464      -1.35696786       0.00000000
Si      -1.44423882      -1.43434536       1.35803214       0.00000000
Si      -2.57044254       2.62423212       0.13220964       0.00000000
Si       2.69860140      -0.15937050       2.53481088       0.00000000
Si       2.62826118      -0.07684536      -2.71446786       0.00000000
Si      -0.08673882       2.63815464      -2.71446786       0.00000000
Si       2.62826118      -2.79184536       0.00053214       0.00000000
Si      -0.08673882      -2.79184536      -2.71446786       0.00000000
Si      -0.08673882      -2.79184536       2.71553214       0.00000000
