10
Lattice="10.86 0.0 0.0 0.0 10.86 0.0 0.0 0.0 10.86" Properties=species:S:1:pos:R:3:initial_magmoms:R:1 pbc="T T T"
Si       0.93380796      -1.36650294       1.54190280       0.00000000
Si      -1.47596088      -1.39116600      -1.16635314       0.00000000
Si      -1.72664226       1.17714798       1.40669580       0.00000000
Si      -0.31838262       2.37651552      -2.41731654       0.00000000
Si       2.35272126      -2.86982016       0.15947910       0.00000000
Si       2.35272126      -0.15482016       2.87447910       0.00000000
Si      -0.36227874      -2.86982016      -2.55552090       0.00000000
Si      -0.36227874       2.56017984       2.87447910       0.00000000
Si      -3.07727874      -0.15482016      -2.55552090       0.00000000
Si      -3.07727874       2.56017984       0.15947910       0.00000000
