10
Lattice="10.86 0.0 0.0 0.0 10.86 0.0 0.0 0.0 10.86" Properties=species:S:1:pos:R:3:initial_magmoms:R:1 pbc="T T T"
Si       1.27613688      -1.27911252      -1.32070632       0.00000000
Si       1.27613688       1.43588748       1.39429368       0.00000000
Si      -1.43886312       1.43588748      -1.32070632       0.00000000
Si       0.12384744      -2.50920300       2.63433192       0.00000000
Si       2.63363688      -2.63661252       0.03679368       0.00000000
Si       2.63363688       0.07838748      -2.67820632       0.00000000
Si      -0.08136312      -2.63661252      -2.67820632       0.00000000
Si       2.63363688       0.07838748       2.75179368       0.00000000
Si       2.63363688       2.79338748       0.03679368       0.00000000
Si      -0.08136312       2.79338748      -2.67820632       0.00000000
