10
Lattice="10.86 0.0 0.0 0.0 10.86 0.0 0.0 0.0 10.86" Properties=species:S:1:pos:R:3:initial_magmoms:R:1 pbc="T T T"
Si      -1.52612322      -1.29390384      -1.15967424       0.00000000
Si       1.18887678      -1.29390384       1.55532576       0.00000000
Si      -1.52612322       1.42109616       1.55532576       0.00000000
Si       2.57632866       0.08109162      -2.51121210       0.00000000
Si      -0.16862322      -2.65140384      -2.51717424       0.00000000
Si       2.54637678      -2.65140384       0.19782576       0.00000000
Si      -0.08053776       2.75160906      -2.47445100       0.00000000
Si      -2.88362322       0.06359616      -2.51717424       0.00000000
Si       2.54637678       0.06359616       2.91282576       0.00000000
Si      -2.88362322      -2.65140384       0.19782576       0.00000000
