10
Lattice="10.86 0.0 0.0 0.0 10.86 0.0 0.0 0.0 10.86" Properties=species:S:1:pos:R:3:initial_magmoms:R:1 pbc="T T T"
Si       1.26941454       1.38448710      -1.40022324       0.00000000
Si      -1.44558546       1.38448710       1.31477676       0.00000000
Si      -1.44558546      -1.33051290      -1.40022324       0.00000000
Si       0.08053776      -2.75160906       2.47445100       0.00000000
Si       2.65686642      -2.67051744      -0.03676110       0.00000000
Si       2.62691454       2.74198710      -0.04272324       0.00000000
Si       2.62691454       0.02698710      -2.75772324       0.00000000
Si      -0.08808546       2.74198710       2.67227676       0.00000000
Si      -0.08808546      -2.68801290      -2.75772324       0.00000000
Si      -2.80308546       0.02698710       2.67227676       0.00000000
