10
Lattice="10.86 0.0 0.0 0.0 10.86 0.0 0.0 0.0 10.86" Properties=species:S:1:pos:R:3:initial_magmoms:R:1 pbc="T T T"
Si       1.38316218      -1.21449552      -1.36253904       0.00000000
Si      -1.28971188      -1.06632168       1.72918350       0.00000000
Si      -1.33183782       1.50050448      -1.36253904       0.00000000
Si       1.38316218       1.50050448       1.35246096       0.00000000
Si      -3.00459276      -1.77225426       0.82417626       0.00000000
Si       0.02566218      -2.57199552      -2.72003904       0.00000000
Si       2.74066218      -2.57199552      -0.00503904       0.00000000
Si      -2.68933782       0.14300448      -2.72003904       0.00000000
Si       2.74066218       0.14300448       2.70996096       0.00000000
Si       2.74066218       0.14300448      -2.72003904       0.00000000
