10
Lattice="10.86 0.0 0.0 0.0 10.86 0.0 0.0 0.0 10.86" Properties=species:S:1:pos:R:3:initial_magmoms:R:1 pbc="T T T"
Si       0.98328612      -1.28183838      -1.32305208       0.00000000
Si       1.29621702       1.24809636       1.32986130       0.00000000
Si      -1.41878298       1.24809636      -1.38513870       0.00000000
Si      -1.41878298      -1.46690364       1.32986130       0.00000000
Si       2.65371702       2.60559636      -0.02763870       0.00000000
Si      -0.06128298       2.60559636       2.68736130       0.00000000
Si       2.65799586      -0.14629506      -2.67379716       0.00000000
Si      -0.06128298       2.60559636      -2.74263870       0.00000000
Si      -2.77628298       2.60559636      -0.02763870       0.00000000
Si      -0.29762916      -2.71314294       2.67302610       0.00000000
