10
Lattice="16.28999089631971 0.0 0.0 0.0 16.28999089631971 0.0 0.0 0.0 34.2284985734139" Properties=species:S:1:pos:R:3:initial_magmoms:R:1 pbc="T T T"
Si      -1.31636232       1.30104741      -1.44178731       0.00000000
Si       1.34387613       1.35723650       1.36383186       0.00000000
Si      -1.37371941      -1.35437476       1.36088821       0.00000000
Si       1.27742922      -1.46610787      -1.38779525       0.00000000
Si      -2.16601614      -0.54626044      -2.65672136       0.00000000
Si      -0.61752132      -2.39577817      -2.55289771       0.00000000
Si       2.68876224       2.70912406      -0.00697919       0.00000000
Si       2.69656515       0.00330647       2.72140333       0.00000000
Si      -0.01733256      -2.71237432       2.72082145       0.00000000
Si       2.69423568      -2.74099585      -0.00646919       0.00000000
