10
Lattice="16.28999089631971 0.0 0.0 0.0 16.28999089631971 0.0 0.0 0.0 34.2284985734139" Properties=species:S:1:pos:R:3:initial_magmoms:R:1 pbc="T T T"
Si      -1.35697329      -1.35646178       1.35767415       0.00000000
Si       1.35791811       1.35865672       1.35736610       0.00000000
Si       1.35892809      -1.35711338      -1.35962518       0.00000000
Si      -1.35485559       1.35879518      -1.36284266       0.00000000
Si       0.00073305      -2.71416812       2.71428723       0.00000000
Si      -2.71461447       0.00094246       2.71486911       0.00000000
Si      -2.71391400      -2.71581341      -0.00006846       0.00000000
Si       2.71591767       0.00074246       2.71442414       0.00000000
Si       2.71531494      -2.71511294       0.00030806       0.00000000
Si       0.00076563       2.71604540       2.71462951       0.00000000
