10
Lattice="16.28999089631971 0.0 0.0 0.0 16.28999089631971 0.0 0.0 0.0 34.2284985734139" Properties=species:S:1:pos:R:3:initial_magmoms:R:1 pbc="T T T"
Si       1.73517822       0.40180914      -1.50054399       0.00000000
Si      -1.34666172      -1.90321934       0.13099254       0.00000000
Si       1.36396170       0.06437808       1.91094391       0.00000000
Si       0.53680437      -3.20043798      -0.33068171       0.00000000
Si       2.61412146      -1.87557847      -1.28517815       0.00000000
Si       0.71469117       2.13074829       2.86910281       0.00000000
Si       0.56713635       1.08406692      -3.46751999       0.00000000
Si      -3.48303006       0.43945533       1.48712641       0.00000000
Si       0.60795909      -1.56862926       3.42891022       0.00000000
Si      -2.61110781      -2.34901311      -1.75037794       0.00000000
