10
Lattice="16.28999089631971 0.0 0.0 0.0 16.28999089631971 0.0 0.0 0.0 34.2284985734139" Properties=species:S:1:pos:R:3:initial_magmoms:R:1 pbc="T T T"
Si      -1.26444609      -0.44579377      -1.88137048       0.00000000
Si       1.88346609      -1.29721864      -0.46167425       0.00000000
Si       1.34666172       1.90321934      -0.13099254       0.00000000
Si      -1.60655238      -0.59576114       1.71200777       0.00000000
Si       1.95365970      -1.53332624       1.87678385       0.00000000
Si      -2.13636834       2.34267467       1.35613387       0.00000000
Si      -1.41413490      -2.79298307      -1.59196836       0.00000000
Si      -2.26644399      -2.65279133       0.69538657       0.00000000
Si       2.71062342       1.96759742       1.77995138       0.00000000
Si       1.18697085      -3.35855558      -1.30424344       0.00000000
