10
Lattice="16.28999089631971 0.0 0.0 0.0 16.28999089631971 0.0 0.0 0.0 34.2284985734139" Properties=species:S:1:pos:R:3:initial_magmoms:R:1 pbc="T T T"
Si       1.40763519       1.35720135       1.25192207       0.00000000
Si      -0.93261879       1.64913444      -1.34578766       0.00000000
Si      -1.55088945      -1.41745806       1.06539376       0.00000000
Si       1.02136671      -1.42198668      -1.61372849       0.00000000
Si      -0.96280416      -1.98233010      -2.86478082       0.00000000
Si      -2.16964881       0.18559197      -2.89538111       0.00000000
Si       2.69074962       2.39585175      -0.47450074       0.00000000
Si       2.57748525      -0.14910237       2.56322000       0.00000000
Si      -0.14636565       2.58650991       2.56061521       0.00000000
Si      -2.72603376       2.54179386      -0.13536359       0.00000000
