10
Lattice="16.28999089631971 0.0 0.0 0.0 16.28999089631971 0.0 0.0 0.0 34.2284985734139" Properties=species:S:1:pos:R:3:initial_magmoms:R:1 pbc="T T T"
Si      -1.10081304      -0.69983469      -1.96478537       0.00000000
Si      -0.00868257      -2.09039796       1.14045998       0.00000000
Si       2.12439519       0.86889231      -0.72112641       0.00000000
Si      -1.04788683       1.92062358       1.00176603       0.00000000
Si       0.90038088      -1.28422215       3.12807578       0.00000000
Si      -1.64506194       1.21336065      -3.15758076       0.00000000
Si       3.22185249       1.48414932       1.35476473       0.00000000
Si      -3.21213062       2.02636197       0.00318325       0.00000000
Si       1.23672051      -3.66554322      -0.07537120       0.00000000
Si       3.47118723      -0.85698432      -1.67579400       0.00000000
