10
Lattice="16.28999089631971 0.0 0.0 0.0 16.28999089631971 0.0 0.0 0.0 34.2284985734139" Properties=species:S:1:pos:R:3:initial_magmoms:R:1 pbc="T T T"
Si       0.20274208       1.69192827       1.58293203       0.00000000
Si       0.57793010      -1.69512111      -1.55691836       0.00000000
Si       1.73320713      -0.29745540       1.92686018       0.00000000
Si       1.91332566       1.63548342      -1.46785575       0.00000000
Si      -1.25875178      -1.05692778       2.72623298       0.00000000
Si      -1.25435348      -3.32239763      -0.44736673       0.00000000
Si      -3.03815735       1.41810966      -1.25690540       0.00000000
Si      -1.04729129       1.18299609       3.46738307       0.00000000
Si      -3.40686521      -0.92162304       1.80599928       0.00000000
Si      -0.26179333       1.25840250      -3.86778827       0.00000000
