10
Lattice="16.28999089631971 0.0 0.0 0.0 16.28999089631971 0.0 0.0 0.0 34.2284985734139" Properties=species:S:1:pos:R:3:initial_magmoms:R:1 pbc="T T T"
Si      -2.17970530       0.07710057       0.88186353       0.00000000
Si       0.23384947       1.90200411      -1.37064676       0.00000000
Si       0.02809048      -2.16632239      -1.04366173       0.00000000
Si       1.36912726       0.42391467       1.96759211       0.00000000
Si      -1.32679348      -1.17011070       2.82864470       0.00000000
Si       1.03400938      -1.75158225       2.81543250       0.00000000
Si      -2.09880916       2.37915450       1.47798739       0.00000000
Si      -0.90959029       3.57081687      -0.17018419       0.00000000
Si      -1.08907351       1.71558135      -3.29144849       0.00000000
Si       2.21047318      -2.44814102      -2.06168631       0.00000000
