10
Lattice="16.28999089631971 0.0 0.0 0.0 16.28999089631971 0.0 0.0 0.0 34.2284985734139" Properties=species:S:1:pos:R:3:initial_magmoms:R:1 pbc="T T T"
Si       1.35788553       1.35620766       1.35740033       0.00000000
Si      -1.35671265       1.35738054      -1.35760570       0.00000000
Si       1.35760860      -1.35760860      -1.35774261       0.00000000
Si      -1.35969372      -1.35974259       1.35685267       0.00000000
Si      -2.71073745       0.00568521       2.71209660       0.00000000
Si       0.00060273      -2.71173114       2.71688859       0.00000000
Si      -2.71357191       0.00087966      -2.71538254       0.00000000
Si       2.71464705      -0.00112401      -2.71449260       0.00000000
Si      -2.71454931       2.71471221      -0.00020537       0.00000000
Si       2.71510317       2.71487511      -0.00034229       0.00000000
