10
Lattice="16.28999089631971 0.0 0.0 0.0 16.28999089631971 0.0 0.0 0.0 34.2284985734139" Properties=species:S:1:pos:R:3:initial_magmoms:R:1 pbc="T T T"
Si      -1.35736425       1.35529542      -1.35336136       0.00000000
Si       1.35666378       1.35511623       1.35733187       0.00000000
Si      -1.35723393      -1.35972630       1.35674998       0.00000000
Si       1.35557235      -1.36298430      -1.35894061       0.00000000
Si      -0.00777033       2.69801496      -2.71503683       0.00000000
Si      -2.70521514       0.00687438      -2.71650181       0.00000000
Si      -2.71484253       2.71078632      -0.00068457       0.00000000
Si       2.71438641       2.71148679      -0.00030806       0.00000000
Si      -0.00019548       2.71243161       2.71367111       0.00000000
Si       2.71458189      -0.00223173       2.71401340       0.00000000
