10
Lattice="16.28999089631971 0.0 0.0 0.0 16.28999089631971 0.0 0.0 0.0 34.2284985734139" Properties=species:S:1:pos:R:3:initial_magmoms:R:1 pbc="T T T"
Si       1.35663120      -1.35609363       1.35842718       0.00000000
Si      -1.35788553      -1.35620766      -1.35740033       0.00000000
Si       1.35721764       1.35866745      -1.35774261       0.00000000
Si      -1.35524655       1.35809730       1.36174735       0.00000000
Si       2.69506647       0.00881289       2.72482961       0.00000000
Si       2.71334385       2.71414206      -0.00068457       0.00000000
Si       2.71425609      -2.71427238      -0.00088994       0.00000000
Si      -0.00027693      -2.71381626      -2.71514294       0.00000000
Si      -2.71459818       0.00117288      -2.71500602       0.00000000
Si       0.00229689      -2.70539433       2.72421350       0.00000000
