10
Lattice="16.28999089631971 0.0 0.0 0.0 16.28999089631971 0.0 0.0 0.0 34.2284985734139" Properties=species:S:1:pos:R:3:initial_magmoms:R:1 pbc="T T T"
Si       1.40126580       1.14267834       1.47658403       0.00000000
Si      -1.23582456       1.38966732      -1.43441449       0.00000000
Si      -1.85723919      -0.97487505       1.16390652       0.00000000
Si       1.46253249      -1.32328557      -1.43342186       0.00000000
Si       2.35331856      -0.93226041       2.43929531       0.00000000
Si       2.69847108       2.54518218      -0.01947603       0.00000000
Si      -2.74199796       2.55523311      -0.02830698       0.00000000
Si      -2.58778053       0.02599884      -2.79650412       0.00000000
Si       0.12409722      -2.68819209      -2.79982429       0.00000000
Si      -2.71417464      -2.81844693      -0.05161660       0.00000000
