10
Lattice="16.28999089631971 0.0 0.0 0.0 16.28999089631971 0.0 0.0 0.0 34.2284985734139" Properties=species:S:1:pos:R:3:initial_magmoms:R:1 pbc="T T T"
Si      -1.34959392      -1.34271954       1.36167547       0.00000000
Si       1.35138582      -1.43718525      -1.28652676       0.00000000
Si      -1.30668606       1.28091528      -1.48616801       0.00000000
Si       1.36576989       1.37147139       1.35479554       0.00000000
Si       2.12196798       0.33006798      -2.55899039       0.00000000
Si       0.57347316       2.17958571      -2.66281404       0.00000000
Si      -2.69744481      -2.69114058      -0.00146498       0.00000000
Si       0.00777033      -2.69801496       2.71503683       0.00000000
Si      -2.70707220       0.01277136       2.71435226       0.00000000
Si      -2.71073745       2.72426615      -0.04088254       0.00000000
