10
Lattice="16.28999089631971 0.0 0.0 0.0 16.28999089631971 0.0 0.0 0.0 34.2284985734139" Properties=species:S:1:pos:R:3:initial_magmoms:R:1 pbc="T T T"
Si      -1.35666378      -1.35511623      -1.35733187       0.00000000
Si      -1.35685926       1.35731538       1.35633924       0.00000000
Si       1.35772263       1.35637056      -1.35763993       0.00000000
Si       1.35791811      -1.35734796       1.35668153       0.00000000
Si      -2.71402803       0.00017919      -2.71069323       0.00000000
Si       2.71404432      -0.00187335       2.71373957       0.00000000
Si       0.00043983       2.71303434       2.71476642       0.00000000
Si      -2.71389771      -2.71484253      -0.00058188       0.00000000
Si      -2.71456560       2.71502172      -0.00027383       0.00000000
Si      -2.71572219       0.00048870       2.71404763       0.00000000
