10
Lattice="16.28999089631971 0.0 0.0 0.0 16.28999089631971 0.0 0.0 0.0 34.2284985734139" Properties=species:S:1:pos:R:3:initial_magmoms:R:1 pbc="T T T"
Si      -2.01233369      -0.80774942      -1.11884580       0.00000000
Si      -1.29811524       1.34557192       1.57881434       0.00000000
Si       1.39010063      -1.36814579       1.54647181       0.00000000
Si       1.40108009       1.44906229      -1.50966045       0.00000000
Si      -2.59000967       2.73121561       0.21272681       0.00000000
Si       2.71480343       2.78173090       0.08725876       0.00000000
Si      -2.81466506      -2.75384635       0.15486351       0.00000000
Si      -3.69313589       1.03290166      -0.93929624       0.00000000
Si       2.79415202      -2.81149666       0.10118634       0.00000000
Si      -2.68056578      -0.00596214       2.94149955       0.00000000
