10
Lattice="16.28999089631971 0.0 0.0 0.0 16.28999089631971 0.0 0.0 0.0 34.2284985734139" Properties=species:S:1:pos:R:3:initial_magmoms:R:1 pbc="T T T"
Si      -1.06381030      -2.01559495       0.68607641       0.00000000
Si      -1.02608266       2.10039025       0.46461790       0.00000000
Si      -0.10125864       0.17826799      -2.38661763       0.00000000
Si       1.97819244      -0.13546764       1.37468573       0.00000000
Si      -2.46206150       0.75973954      -2.37340542       0.00000000
Si       3.13294167      -1.75078471      -0.03231172       0.00000000
Si      -3.20061752       1.74880318      -0.31493659       0.00000000
Si      -1.98675188      -2.97367501      -1.29418025       0.00000000
Si       2.83568175       2.06724010       1.61873506       0.00000000
Si      -0.38888628       3.65093761      -1.25023084       0.00000000
