10
Lattice="16.28999089631971 0.0 0.0 0.0 16.28999089631971 0.0 0.0 0.0 34.2284985734139" Properties=species:S:1:pos:R:3:initial_magmoms:R:1 pbc="T T T"
Si      -1.22409250       1.61127648      -1.32471209       0.00000000
Si       1.31372334       1.33266861       1.59691921       0.00000000
Si      -1.40108009      -1.44906229       1.50966045       0.00000000
Si       1.90180863       0.76779657      -2.33325537       0.00000000
Si       1.04431932      -1.43491117      -2.57730470       0.00000000
Si      -2.74953113       2.65155588       0.24144796       0.00000000
Si       0.69496398       2.93571864      -2.36385566       0.00000000
Si       2.86461279       2.75012667       0.53152545       0.00000000
Si      -0.01933623       2.61956232       3.08311118       0.00000000
Si      -1.95995579       0.80094672      -3.48737253       0.00000000
