10
Lattice="16.28999089631971 0.0 0.0 0.0 16.28999089631971 0.0 0.0 0.0 34.2284985734139" Properties=species:S:1:pos:R:3:initial_magmoms:R:1 pbc="T T T"
Si       1.35666378       1.35746199       1.35791375       0.00000000
Si      -1.35736425       1.35769005      -1.35750301       0.00000000
Si       1.35762489      -1.35800445      -1.35753724       0.00000000
Si      -1.36008468      -1.35669962       1.35757147       0.00000000
Si      -2.71277370       0.00053757       2.71257580       0.00000000
Si      -2.71342530       0.00026064      -2.71490334       0.00000000
Si      -0.00141723      -2.71544497      -2.71391071       0.00000000
Si      -2.71505430       2.71459818      -0.00041074       0.00000000
Si       2.71485882      -0.00118917      -2.71493757       0.00000000
Si      -2.71471221      -2.71527036      -0.00037651       0.00000000
