10
Lattice="16.28999089631971 0.0 0.0 0.0 16.28999089631971 0.0 0.0 0.0 34.2284985734139" Properties=species:S:1:pos:R:3:initial_magmoms:R:1 pbc="T T T"
Si      -1.89925110       1.41176796       0.09043174       0.00000000
Si      -0.36189864      -2.18362141       0.86286670       0.00000000
Si       1.57097502       0.75945120       1.62609419       0.00000000
Si       0.57120885      -0.63417947      -2.26585941       0.00000000
Si       2.73857706       2.21805780       0.22371759       0.00000000
Si      -2.01774456      -1.57821985       2.58949005       0.00000000
Si      -3.69699921      -0.04746254      -0.47913079       0.00000000
Si       2.86759386      -1.00742426      -2.20246820       0.00000000
Si      -1.05301818      -2.26930681      -2.81242039       0.00000000
Si      -1.72766853       2.87915487      -1.76629420       0.00000000
