10
Lattice="16.28999089631971 0.0 0.0 0.0 16.28999089631971 0.0 0.0 0.0 34.2284985734139" Properties=species:S:1:pos:R:3:initial_magmoms:R:1 pbc="T T T"
Si       1.35523026      -1.35536058       1.35688690       0.00000000
Si      -1.33947783      -1.37365425      -1.36024814       0.00000000
Si      -1.35992178       1.35759231       1.35692113       0.00000000
Si       1.33604064       1.36397799      -1.38057303       0.00000000
Si      -2.50932789       0.13264947      -2.67154608       0.00000000
Si       2.66510916      -0.02050911      -2.73031302       0.00000000
Si       2.71340901       0.00091224       2.71404763       0.00000000
Si      -0.00171045      -2.71386513       2.71373957       0.00000000
Si       2.71319724       2.71523349      -0.00390205       0.00000000
Si      -0.00146610       2.71551042       2.71367111       0.00000000
