10
Lattice="16.28999089631971 0.0 0.0 0.0 16.28999089631971 0.0 0.0 0.0 34.2284985734139" Properties=species:S:1:pos:R:3:initial_magmoms:R:1 pbc="T T T"
Si       1.35697329       1.35760860       1.35709227       0.00000000
Si       1.35769005      -1.35690813      -1.35709227       0.00000000
Si      -1.35755973       1.35806472      -1.35716073       0.00000000
Si      -1.35751086      -1.36044306       1.35716073       0.00000000
Si       0.00228060      -2.71406061       2.71298654       0.00000000
Si      -0.00052128       2.71454931      -2.71391071       0.00000000
Si       2.71463076       0.00159642      -2.71394494       0.00000000
Si       0.00162900      -2.71433754      -2.71449260       0.00000000
Si      -2.71484253      -0.00003258      -2.71435568       0.00000000
Si      -2.71480995      -2.71456560       0.00023960       0.00000000
