10
Lattice="16.28999089631971 0.0 0.0 0.0 16.28999089631971 0.0 0.0 0.0 34.2284985734139" Properties=species:S:1:pos:R:3:initial_magmoms:R:1 pbc="T T T"
Si      -1.36089918       1.29538080       1.30294275       0.00000000
Si       1.14272721      -1.31204547       1.50988837       0.00000000
Si      -1.34638479      -1.36428750      -1.31670262       0.00000000
Si       1.36234899       1.35127179      -1.32235032       0.00000000
Si       1.74221550       0.55161198       2.92496375       0.00000000
Si      -2.41522056      -0.34450092       2.64654899       0.00000000
Si       0.12595428       2.37635262       2.73407131       0.00000000
Si      -0.69548526      -2.24955126       2.84062468       0.00000000
Si       0.00329058       2.70532917      -2.67827882       0.00000000
Si      -2.70894555      -0.00716760      -2.67797077       0.00000000
