10
Lattice="16.28999089631971 0.0 0.0 0.0 16.28999089631971 0.0 0.0 0.0 34.2284985734139" Properties=species:S:1:pos:R:3:initial_magmoms:R:1 pbc="T T T"
Si       1.55088945       1.41745806      -1.06539376       0.00000000
Si      -1.33305957       1.28689371       1.48619197       0.00000000
Si      -1.31372334      -1.33266861      -1.59691921       0.00000000
Si       1.38497580      -1.42847010       1.46518935       0.00000000
Si       2.57225616      -0.00452862      -2.67912225       0.00000000
Si      -2.72469635       2.61211779       0.07501864       0.00000000
Si      -2.53781584       0.27860787      -2.92163130       0.00000000
Si      -2.71480343      -2.78173090      -0.08725876       0.00000000
Si       0.03696201       2.64109770       2.85543879       0.00000000
Si      -2.67694222      -0.07483626       2.85762941       0.00000000
