10
Lattice="16.28999089631971 0.0 0.0 0.0 16.28999089631971 0.0 0.0 0.0 34.2284985734139" Properties=species:S:1:pos:R:3:initial_magmoms:R:1 pbc="T T T"
Si       1.23621552       0.97601535       1.73411939       0.00000000
Si      -0.18588519       1.34602641      -1.92316350       0.00000000
Si       1.06662033      -2.10505896      -0.26075285       0.00000000
Si      -2.12035527       0.37921491       1.15555476       0.00000000
Si       0.49461327      -0.54512856       3.34214093       0.00000000
Si       0.59315148      -0.15838767      -3.60758308       0.00000000
Si      -2.41776180       2.34429390      -1.48147870       0.00000000
Si      -1.63923012      -2.96849412      -1.56020429       0.00000000
Si       0.32503437       3.13532001       2.05692854       0.00000000
Si       3.37949082      -1.63286073       0.29477599       0.00000000
