10
Lattice="16.28999089631971 0.0 0.0 0.0 16.28999089631971 0.0 0.0 0.0 34.2284985734139" Properties=species:S:1:pos:R:3:initial_magmoms:R:1 pbc="T T T"
Si       1.35567009       1.35848826      -1.35736610       0.00000000
Si       1.35755973      -1.35697329       1.35729764       0.00000000
Si      -1.35845568      -1.35791811      -1.35674998       0.00000000
Si      -1.35799956       1.35808101       1.35740033       0.00000000
Si       2.71127502      -0.00236205       2.71394494       0.00000000
Si       0.00467523       2.71456560      -2.71339728       0.00000000
Si      -0.00187335       2.71355562       2.71445837       0.00000000
Si      -0.00096111      -2.71485882       2.71425300       0.00000000
Si       0.00146610      -2.71551042      -2.71367111       0.00000000
Si       2.71487511      -2.71459818       0.00037651       0.00000000
