10
Lattice="16.28999089631971 0.0 0.0 0.0 16.28999089631971 0.0 0.0 0.0 34.2284985734139" Properties=species:S:1:pos:R:3:initial_magmoms:R:1 pbc="T T T"
Si       0.35388396       0.58354038       2.30197050       0.00000000
Si       1.96330338      -0.73059021      -1.18639465       0.00000000
Si      -1.35690813      -1.94702967       0.41050261       0.00000000
Si      -0.95205276       2.07493875      -0.96271129       0.00000000
Si       0.47644992      -1.81156203      -2.61752321       0.00000000
Si      -2.35331856       0.93226041      -2.43929531       0.00000000
Si       2.73732273       0.72951507       2.41307627       0.00000000
Si      -0.57787146      -3.45144375      -1.27391697       0.00000000
Si      -3.58878474      -0.94876218       0.85218741       0.00000000
Si       0.16312806       2.83696866       2.75063791       0.00000000
