10
Lattice="16.28999089631971 0.0 0.0 0.0 16.28999089631971 0.0 0.0 0.0 34.2284985734139" Properties=species:S:1:pos:R:3:initial_magmoms:R:1 pbc="T T T"
Si      -0.52908291      -2.25609984      -0.38558425       0.00000000
Si       2.19726036      -0.20857716       0.81874614       0.00000000
Si      -0.00527796       1.59746256      -1.76776603       0.00000000
Si      -1.13568993       0.71100963       1.97553313       0.00000000
Si      -0.73850715       3.44012220      -0.48221136       0.00000000
Si       2.18390256      -2.30671287       1.91118351       0.00000000
Si      -2.16634194       2.77322589       1.27165789       0.00000000
Si      -3.16570086      -0.55144908       2.02677322       0.00000000
Si       1.11651660      -3.70770174       0.39188230       0.00000000
Si       2.17331406       2.43059832      -2.18302640       0.00000000
