10
Lattice="16.28999089631971 0.0 0.0 0.0 16.28999089631971 0.0 0.0 0.0 34.2284985734139" Properties=species:S:1:pos:R:3:initial_magmoms:R:1 pbc="T T T"
Si       0.93304233       2.20061610       0.35036311       0.00000000
Si      -1.82579949      -0.38258694      -1.61199204       0.00000000
Si       0.15527628      -0.86903892       2.31241020       0.00000000
Si       1.35307998      -0.89125848      -2.03615183       0.00000000
Si      -0.62708355      -1.71387090      -3.17140908       0.00000000
Si      -2.11444200       1.80126675      -2.44432691       0.00000000
Si      -0.04891887      -3.87565164      -0.16313312       0.00000000
Si       1.82531079       0.90517014      -3.48261476       0.00000000
Si       0.03482802       2.48596803      -3.18883139       0.00000000
Si       0.92953998       1.00232370       3.86625624       0.00000000
