10
Lattice="16.28999089631971 0.0 0.0 0.0 16.28999089631971 0.0 0.0 0.0 34.2284985734139" Properties=species:S:1:pos:R:3:initial_magmoms:R:1 pbc="T T T"
Si      -1.34876313      -1.36741518      -1.38895902       0.00000000
Si       1.37298636       1.34693865      -1.39440135       0.00000000
Si       1.34759025      -1.42425099       1.53487519       0.00000000
Si      -1.56799395       1.40191740       1.43759774       0.00000000
Si       1.71845883       1.15285959       1.81465909       0.00000000
Si       2.72716984       2.69519679      -0.01577935       0.00000000
Si      -2.69360037      -2.73102176       0.00352554       0.00000000
Si      -2.71072116       2.71396287      -0.07229063       0.00000000
Si       2.73023888      -2.70740777      -0.01516323       0.00000000
Si      -2.70492192      -0.00794952      -2.74902917       0.00000000
