10
Lattice="16.28999089631971 0.0 0.0 0.0 16.28999089631971 0.0 0.0 0.0 34.2284985734139" Properties=species:S:1:pos:R:3:initial_magmoms:R:1 pbc="T T T"
Si       1.38264863      -1.28315678      -1.55003842       0.00000000
Si      -1.34759025       1.42425099      -1.53487519       0.00000000
Si      -0.57985884      -2.07247733       1.32998328       0.00000000
Si       0.37086858       2.57711058       0.27978390       0.00000000
Si       1.21059202      -0.37641303       2.59065382       0.00000000
Si       2.76391520       2.61910620       0.10415738       0.00000000
Si      -2.63199159      -2.78646056       0.00465508       0.00000000
Si       2.69748458      -2.74433462      -0.21981554       0.00000000
Si       0.01709168      -2.65663375      -2.92753089       0.00000000
Si      -2.69635338       0.05683581      -2.92383421       0.00000000
