10
Lattice="16.28999089631971 0.0 0.0 0.0 16.28999089631971 0.0 0.0 0.0 34.2284985734139" Properties=species:S:1:pos:R:3:initial_magmoms:R:1 pbc="T T T"
Si       2.17970530      -0.07710057      -0.88186353       0.00000000
Si       0.08089614       2.30205393       0.59612386       0.00000000
Si      -1.80615375      -1.57239225      -0.25722731       0.00000000
Si       0.85291182      -1.24721127       1.94678117       0.00000000
Si      -1.37738466       0.96464493      -2.17587264       0.00000000
Si       2.20779577      -2.24342296      -1.92552526       0.00000000
Si      -3.13225749       1.75306464      -0.85951231       0.00000000
Si       3.54883256       0.34681410       1.08572858       0.00000000
Si       2.41355476       1.82490354      -2.25251029       0.00000000
Si      -3.77603829      -0.35401428      -0.10980508       0.00000000
