10
Lattice="16.28999089631971 0.0 0.0 0.0 16.28999089631971 0.0 0.0 0.0 34.2284985734139" Properties=species:S:1:pos:R:3:initial_magmoms:R:1 pbc="T T T"
Si      -2.29638501       0.37324479      -0.06339121       0.00000000
Si       0.60953922       2.23641842       0.36771697       0.00000000
Si       1.08484884      -1.49699612       1.44694213       0.00000000
Si       1.26307773      -0.46862471      -1.93421931       0.00000000
Si      -2.04952635       1.91123744      -1.83629152       0.00000000
Si       2.97034208       1.65494687       0.35450476       0.00000000
Si       2.73371679      -2.35824842       0.08341490       0.00000000
Si       3.60824219      -0.38738648      -0.84777193       0.00000000
Si      -2.86759386       1.00742426       2.20246820       0.00000000
Si       0.43201080      -2.63623727      -2.64620670       0.00000000
