10
Lattice="16.28999089631971 0.0 0.0 0.0 16.28999089631971 0.0 0.0 0.0 34.2284985734139" Properties=species:S:1:pos:R:3:initial_magmoms:R:1 pbc="T T T"
Si       1.35830285       1.35725022      -1.35705804       0.00000000
Si      -1.35752715       1.35707103       1.35856410       0.00000000
Si       1.35729234      -1.35775521       1.35839295       0.00000000
Si      -1.35788553      -1.35894438      -1.35740033       0.00000000
Si       2.71536122      -0.00262269       2.71401340       0.00000000
Si       2.71484320       2.71453302      -0.00023960       0.00000000
Si       2.71460048      -2.71481647       0.00030806       0.00000000
Si      -2.71498914       2.71471221       0.00034229       0.00000000
Si       0.00068418      -2.71613596       2.71445837       0.00000000
Si      -2.71511946      -2.71575966       0.00000000       0.00000000
