10
Lattice="16.28999089631971 0.0 0.0 0.0 16.28999089631971 0.0 0.0 0.0 34.2284985734139" Properties=species:S:1:pos:R:3:initial_magmoms:R:1 pbc="T T T"
Si      -1.35848826       1.35604476       1.35483319       0.00000000
Si       1.35822579       1.35532800      -1.35695536       0.00000000
Si      -1.35648459      -1.35977517      -1.35644193       0.00000000
Si       1.36287027      -1.36225125       1.35507279       0.00000000
Si      -2.72083725       0.00477297       2.67718351       0.00000000
Si       2.71472265       2.71077003      -0.00023960       0.00000000
Si       0.00057015       2.71252935      -2.71476642       0.00000000
Si      -2.71754667       2.71010214      -0.00109531       0.00000000
Si      -2.71394658      -0.00213399      -2.71466374       0.00000000
Si       2.71588576      -0.00231318      -2.71524562       0.00000000
