10
Lattice="16.28999089631971 0.0 0.0 0.0 16.28999089631971 0.0 0.0 0.0 34.2284985734139" Properties=species:S:1:pos:R:3:initial_magmoms:R:1 pbc="T T T"
Si      -1.28169720      -0.41757786       2.05107547       0.00000000
Si       0.08939952       1.95300810      -1.57286885       0.00000000
Si      -0.99530271      -2.55143754      -0.71253505       0.00000000
Si      -2.34830124      -0.84815514      -1.65720791       0.00000000
Si      -0.51008877       0.08935065      -2.98794422       0.00000000
Si       3.03815735      -1.41810966       1.25690540       0.00000000
Si       2.77636401      -0.15970716      -2.61088287       0.00000000
Si      -0.36870786      -2.33973270       3.06290468       0.00000000
Si      -1.16916588       1.47976731       3.42914982       0.00000000
Si      -3.59456769      -0.88977609       1.49554662       0.00000000
