10
Lattice="16.28999089631971 0.0 0.0 0.0 16.28999089631971 0.0 0.0 0.0 34.2284985734139" Properties=species:S:1:pos:R:3:initial_magmoms:R:1 pbc="T T T"
Si      -0.73459755       0.30678957       2.22875570       0.00000000
Si       1.03273713      -2.13402258       0.06198785       0.00000000
Si       1.80543699       0.95097762      -1.23701863       0.00000000
Si      -1.99018188       0.32172750      -1.32587586       0.00000000
Si       0.99927747       0.42617898      -3.34713829       0.00000000
Si      -1.14649020       1.27817856      -3.28347325       0.00000000
Si      -2.60889237       1.89157851       1.92176013       0.00000000
Si       3.20727198      -1.78243551       0.84154234       0.00000000
Si      -0.13486491      -3.59262918       1.46436444       0.00000000
Si      -3.40091217       1.86642675      -0.29118200       0.00000000
