10
Lattice="16.28999089631971 0.0 0.0 0.0 16.28999089631971 0.0 0.0 0.0 34.2284985734139" Properties=species:S:1:pos:R:3:initial_magmoms:R:1 pbc="T T T"
Si       0.73459755      -0.30678957      -2.22875570       0.00000000
Si       1.55527146       1.26855117       1.32368524       0.00000000
Si      -1.87429482       1.58478894      -0.30699558       0.00000000
Si      -0.51684912      -2.37048822       0.88631324       0.00000000
Si      -2.11030434      -0.57731760       2.48954860       0.00000000
Si      -3.52026900       0.54424890       0.97982555       0.00000000
Si       1.76733468      -2.44081215      -2.16676786       0.00000000
Si      -1.25558433       0.01493793      -3.55463156       0.00000000
Si       2.91639870       2.41158789      -0.18154806       0.00000000
Si       0.16246017       2.81351106       2.54320389       0.00000000
