10
Lattice="16.28999089631971 0.0 0.0 0.0 16.28999089631971 0.0 0.0 0.0 34.2284985734139" Properties=species:S:1:pos:R:3:initial_magmoms:R:1 pbc="T T T"
Si       1.36073695       1.35316143       1.37291269       0.00000000
Si      -1.35567009      -1.35936792       1.37407646       0.00000000
Si       1.31483988      -1.39116600      -1.40613831       0.00000000
Si      -1.30676751       1.44642168      -1.40095954       0.00000000
Si      -2.70443322      -2.71722087       0.00423749       0.00000000
Si       2.70647666      -2.71639008       0.00503501       0.00000000
Si      -2.69895978       2.72520297       0.00881042       0.00000000
Si      -2.71140534      -0.00337203       2.73349627       0.00000000
Si       0.00233317       2.71298547       2.73342781       0.00000000
Si       2.72812607       2.72142369       0.01747366       0.00000000
