10
Lattice="16.28999089631971 0.0 0.0 0.0 16.28999089631971 0.0 0.0 0.0 34.2284985734139" Properties=species:S:1:pos:R:3:initial_magmoms:R:1 pbc="T T T"
Si       2.19834487       0.22512780      -0.81381724       0.00000000
Si      -1.40100516      -1.83523140       0.55289325       0.00000000
Si       0.20406483       1.08291033       2.12672049       0.00000000
Si      -0.98468163       1.92285531      -1.04054694       0.00000000
Si      -0.23258862      -2.42439183       2.49276026       0.00000000
Si       2.86349760       2.39280552      -0.12609786       0.00000000
Si       2.05247484       2.54330883       2.06805281       0.00000000
Si      -3.65681178      -1.12370049       0.61416229       0.00000000
Si       0.17264142      -0.55392516       3.83876249       0.00000000
Si      -3.36812040       1.77688062      -1.15165271       0.00000000
