10
Lattice="16.28999089631971 0.0 0.0 0.0 16.28999089631971 0.0 0.0 0.0 34.2284985734139" Properties=species:S:1:pos:R:3:initial_magmoms:R:1 pbc="T T T"
Si      -0.54424890       1.91319534      -1.19279538       0.00000000
Si      -2.13929565      -0.90042975       0.29166120       0.00000000
Si       1.10081304       0.69983469       1.96478537       0.00000000
Si       1.16729253      -1.51065315      -1.40966727       0.00000000
Si       1.09213047      -1.39056327       3.10524535       0.00000000
Si      -3.28273541       0.76838301       1.49212377       0.00000000
Si       3.22520823       1.56872700       1.24365896       0.00000000
Si       1.48147776      -3.56417055      -0.22970758       0.00000000
Si      -1.27764099       1.52348967      -3.32225416       0.00000000
Si       0.05292621       2.62045827       2.96655140       0.00000000
