10
Lattice="16.28999089631971 0.0 0.0 0.0 16.28999089631971 0.0 0.0 0.0 34.2284985734139" Properties=species:S:1:pos:R:3:initial_magmoms:R:1 pbc="T T T"
Si       0.41598144      -0.85643046      -2.15044085       0.00000000
Si      -2.26807299      -0.50101524       0.43192966       0.00000000
Si       1.92240931      -1.19022885       0.81768506       0.00000000
Si       0.65054115       2.37271995       0.42758264       0.00000000
Si      -1.63287702       0.21458817       2.66267062       0.00000000
Si      -2.70888039       1.28542761      -1.30218973       0.00000000
Si       1.77785802      -2.51851545      -1.08956218       0.00000000
Si       2.52840252       1.92270870      -0.94032584       0.00000000
Si       1.60546095       0.96462864      -2.92058250       0.00000000
Si       3.80432492       0.30343383       0.38079226       0.00000000
