10
Lattice="16.28999089631971 0.0 0.0 0.0 16.28999089631971 0.0 0.0 0.0 34.2284985734139" Properties=species:S:1:pos:R:3:initial_magmoms:R:1 pbc="T T T"
Si       1.34785089       1.34842104       1.36314045       0.00000000
Si      -1.20117736       1.39691637      -1.45771384       0.00000000
Si       1.43273808      -1.29140604      -1.36252776       0.00000000
Si      -1.36738912      -1.36826226       1.35543903       0.00000000
Si      -2.48124230       0.00032580      -2.86765635       0.00000000
Si       2.69744481       2.69114058       0.00146498       0.00000000
Si      -0.00962739       2.70391194       2.71581724       0.00000000
Si      -2.71787884       2.70270648      -0.02905317       0.00000000
Si       2.70521514      -0.00687438       2.71650181       0.00000000
Si       2.71593396      -2.72073951      -0.00340916       0.00000000
