10
Lattice="16.28999089631971 0.0 0.0 0.0 16.28999089631971 0.0 0.0 0.0 34.2284985734139" Properties=species:S:1:pos:R:3:initial_magmoms:R:1 pbc="T T T"
Si       1.35685926       1.35650088       1.35777684       0.00000000
Si      -1.35851107       1.35483930      -1.36003592       0.00000000
Si      -1.35860881      -1.35886293       1.35743456       0.00000000
Si       1.35725022      -1.36050822      -1.35866678       0.00000000
Si       2.71357191      -0.00087966       2.71538254       0.00000000
Si      -0.00097740       2.71383255       2.71517717       0.00000000
Si       2.71409319       2.71622718       0.00102686       0.00000000
Si       2.71389771      -2.71658556       0.00044497       0.00000000
Si      -2.71514916      -2.71614573       0.00061611       0.00000000
Si      -2.71691484       2.71466334       0.00047920       0.00000000
