10
Lattice="16.28999089631971 0.0 0.0 0.0 16.28999089631971 0.0 0.0 0.0 34.2284985734139" Properties=species:S:1:pos:R:3:initial_magmoms:R:1 pbc="T T T"
Si      -1.44418573      -1.32069546      -1.24396702       0.00000000
Si       0.00558095      -1.25374356       1.96998811       0.00000000
Si       1.55033070       1.52502093      -1.05899611       0.00000000
Si       0.27095157      -2.40526737      -2.59945055       0.00000000
Si      -2.45232496       0.32404068      -2.61379230       0.00000000
Si       2.14058256      -0.79542441       3.13954233       0.00000000
Si      -3.42472393      -1.83488931       0.26900192       0.00000000
Si       2.96236419       0.31239333      -2.60455060       0.00000000
Si       0.27812569       3.02238144      -2.58842897       0.00000000
Si      -1.08393930      -0.24777090       3.90431010       0.00000000
