10
Lattice="16.28999089631971 0.0 0.0 0.0 16.28999089631971 0.0 0.0 0.0 34.2284985734139" Properties=species:S:1:pos:R:3:initial_magmoms:R:1 pbc="T T T"
Si       0.21740634       2.23309836       0.68104482       0.00000000
Si       0.84038481      -1.29515274       1.81424835       0.00000000
Si      -2.27704715      -0.22248882      -0.67375414       0.00000000
Si       1.09690344      -0.70744212      -2.03755520       0.00000000
Si      -3.08806991      -0.07198551       1.52039653       0.00000000
Si      -1.54437834      -1.28883222       2.86437928       0.00000000
Si       3.31407018      -0.72783720      -1.26638670       0.00000000
Si       0.28232199      -2.93782005      -2.12624129       0.00000000
Si      -0.46354824      -3.16535877       1.73672076       0.00000000
Si      -1.19694033      -3.55506444      -0.39273801       0.00000000
