10
Lattice="16.28999089631971 0.0 0.0 0.0 16.28999089631971 0.0 0.0 0.0 34.2284985734139" Properties=species:S:1:pos:R:3:initial_magmoms:R:1 pbc="T T T"
Si       1.74525955      -1.16489790       0.96873551       0.00000000
Si      -2.19834487      -0.22512780       0.81381724       0.00000000
Si       0.66515273       2.16767772       0.68771938       0.00000000
Si       1.08952026      -1.00597266      -1.93432199       0.00000000
Si       3.22452187      -0.54765351      -0.76476777       0.00000000
Si       0.81071528      -3.26630790       0.77739809       0.00000000
Si      -3.18302650       1.69772751      -0.22672970       0.00000000
Si      -1.99428004       0.85778253       2.94053773       0.00000000
Si      -0.14587003       2.31818103       2.88187005       0.00000000
Si      -0.19125397       3.81431979      -0.79283516       0.00000000
