10
Lattice="16.28999089631971 0.0 0.0 0.0 16.28999089631971 0.0 0.0 0.0 34.2284985734139" Properties=species:S:1:pos:R:3:initial_magmoms:R:1 pbc="T T T"
Si       0.98196120      -0.81665028       2.00288171       0.00000000
Si      -1.88191561      -1.49366268       0.43689280       0.00000000
Si      -1.27592240       1.61927487      -1.32111810       0.00000000
Si       1.89182286      -0.21186774      -1.55849287       0.00000000
Si       2.30322681      -2.39445081       0.73238759       0.00000000
Si       0.83714310      -1.37549502      -3.28528736       0.00000000
Si      -3.15378377       2.06928612       0.04679038       0.00000000
Si      -2.02646690      -2.82194928      -1.47035443       0.00000000
Si      -3.80432492      -0.30343383      -0.38079226       0.00000000
Si       1.76608035       3.49940218      -0.63250878       0.00000000
