10
Lattice="16.28999089631971 0.0 0.0 0.0 16.28999089631971 0.0 0.0 0.0 34.69518985606464" Properties=species:S:1:pos:R:3:initial_magmoms:R:1 pbc="T T T"
Si      -1.35526284      -1.35113821       1.39611093       0.00000000
Si       1.36490652       1.35951453       1.39742935       0.00000000
Si      -1.49791437       1.41270138      -1.39718648       0.00000000
Si       1.35923760      -1.52272730      -1.49324017       0.00000000
Si       2.70205488       2.70971118       0.01516528       0.00000000
Si       2.70550836      -2.71468682       0.04664424       0.00000000
Si      -2.70772380      -2.71388861       0.00892014       0.00000000
Si      -2.73531906       2.72776050       0.05159872       0.00000000
Si       0.00057015      -2.71408850       2.75890406       0.00000000
Si      -2.71450044       0.00324171       2.75966735       0.00000000
