10
Lattice="16.28999089631971 0.0 0.0 0.0 16.28999089631971 0.0 0.0 0.0 34.69518985606464" Properties=species:S:1:pos:R:3:initial_magmoms:R:1 pbc="T T T"
Si       1.35894438       1.33952670      -1.38357555       0.00000000
Si      -1.35058761      -1.37373570      -1.38697568       0.00000000
Si       1.43721783      -1.34164440       1.39325552       0.00000000
Si      -1.45883466       1.27728261       1.56867450       0.00000000
Si       0.47905632       2.12584500       2.76243256       0.00000000
Si      -0.45077688      -2.18173599       2.72614137       0.00000000
Si      -2.54142571      -0.56964501       2.72645363       0.00000000
Si      -2.70271951       2.70583416      -0.00405934       0.00000000
Si       2.72567538       2.70850572      -0.01165759       0.00000000
Si       0.00379557       2.70203859      -2.75056680       0.00000000
