10
Lattice="16.28999089631971 0.0 0.0 0.0 16.28999089631971 0.0 0.0 0.0 34.69518985606464" Properties=species:S:1:pos:R:3:initial_magmoms:R:1 pbc="T T T"
Si       1.84337640       1.66456107       0.01772925       0.00000000
Si      -0.99044829      -0.52163838       2.29546974       0.00000000
Si       1.72336797      -1.74825094      -0.70882312       0.00000000
Si      -1.62541620      -0.36224073      -1.95691389       0.00000000
Si      -3.51341091      -1.20233232      -0.62402803       0.00000000
Si      -0.35355816      -1.77258169      -3.37622551       0.00000000
Si       1.54841337       2.85412203      -2.09784583       0.00000000
Si      -2.95254621      -1.78698694       1.77282111       0.00000000
Si       3.35124396      -0.27090270       2.02030203       0.00000000
Si       0.63283392      -3.45195593      -2.01013634       0.00000000
