10
Lattice="16.28999089631971 0.0 0.0 0.0 16.28999089631971 0.0 0.0 0.0 34.69518985606464" Properties=species:S:1:pos:R:3:initial_magmoms:R:1 pbc="T T T"
Si       1.96209792       1.26534856       0.52264863       0.00000000
Si       0.60365853      -2.29316026      -0.32145111       0.00000000
Si      -0.56086470       0.58465462      -2.39684914       0.00000000
Si      -1.37363796      -0.16259212       2.28592856       0.00000000
Si       3.05432613      -0.39617769       1.82996412       0.00000000
Si       2.19217788      -2.58589156       1.40571110       0.00000000
Si       2.95254621       1.78698694      -1.77282111       0.00000000
Si      -1.38163635      -3.68621590       0.09992220       0.00000000
Si      -1.44257724      -1.32755422      -3.61066104       0.00000000
Si       1.81623726       2.94642769       2.34279400       0.00000000
