10
Lattice="16.28999089631971 0.0 0.0 0.0 16.28999089631971 0.0 0.0 0.0 34.69518985606464" Properties=species:S:1:pos:R:3:initial_magmoms:R:1 pbc="T T T"
Si      -1.17854892       1.45534860       1.48268589       0.00000000
Si       1.71396864       0.93919995      -1.40041804       0.00000000
Si       1.50881238      -1.25944506       1.45247330       0.00000000
Si      -2.01160323      -0.71065125      -1.44666675       0.00000000
Si      -2.69115687      -2.55645486       0.04012154       0.00000000
Si      -1.49936418       1.96939584      -2.76758276       0.00000000
Si       0.60031908       1.17801135      -3.52536082       0.00000000
Si      -2.72780937       2.60581356       0.18546324       0.00000000
Si      -2.54861937       0.10759545       2.83921306       0.00000000
Si       2.74646142       2.67297723      -0.02930704       0.00000000
