10
Lattice="16.28999089631971 0.0 0.0 0.0 16.28999089631971 0.0 0.0 0.0 34.69518985606464" Properties=species:S:1:pos:R:3:initial_magmoms:R:1 pbc="T T T"
Si      -1.35547461       1.35746199       1.35713780       0.00000000
Si       1.35632169       1.35594702      -1.35810927       0.00000000
Si       1.35772263      -1.35754344       1.35751945       0.00000000
Si      -1.35879777      -1.35852084      -1.35692963       0.00000000
Si      -2.71387653       2.71459818      -0.00031226       0.00000000
Si       2.71396287      -0.00159642       2.71490012       0.00000000
Si      -2.71102741       0.00060273      -2.71812678       0.00000000
Si      -2.71448741      -2.71512923      -0.00027756       0.00000000
Si       0.00032580       2.71498914      -2.71469195       0.00000000
Si      -2.71325588      -0.00100998       2.71649610       0.00000000
