10
Lattice="16.28999089631971 0.0 0.0 0.0 16.28999089631971 0.0 0.0 0.0 34.69518985606464" Properties=species:S:1:pos:R:3:initial_magmoms:R:1 pbc="T T T"
Si      -1.34682462       1.34612415       1.35422341       0.00000000
Si       1.35791811       1.35448092      -1.35665207       0.00000000
Si      -1.35604476      -1.36008468      -1.35529896       0.00000000
Si       1.35514881      -1.36251189       1.36699124       0.00000000
Si       0.00205254       2.68345170       2.72152691       0.00000000
Si       2.71476108       2.70940167      -0.00138781       0.00000000
Si       0.00003258       2.71199178      -2.71233268       0.00000000
Si      -2.71637542       2.71010214       0.00447568       0.00000000
Si      -2.71444668      -0.00294849      -2.71274902       0.00000000
Si       2.71492398      -0.00257382      -2.71278372       0.00000000
