10
Lattice="16.28999089631971 0.0 0.0 0.0 16.28999089631971 0.0 0.0 0.0 34.69518985606464" Properties=species:S:1:pos:R:3:initial_magmoms:R:1 pbc="T T T"
Si       1.34299647       1.35422028      -1.38513684       0.00000000
Si      -1.36673100      -1.36897902      -1.37191796       0.00000000
Si      -1.44264240       1.19711952       1.49130418       0.00000000
Si       1.88537202      -0.83378736       1.26398117       0.00000000
Si      -2.24661906      -0.58266072       2.77409015       0.00000000
Si       2.70358614       2.68205076      -0.01793742       0.00000000
Si      -2.71982727       2.67698457      -0.01738230       0.00000000
Si       2.70552465      -2.71316466      -0.01797212       0.00000000
Si      -2.72567538      -2.70850572       0.01165759       0.00000000
Si       2.70629028      -0.01239669      -2.73644585       0.00000000
