10
Lattice="16.28999089631971 0.0 0.0 0.0 16.28999089631971 0.0 0.0 0.0 34.69518985606464" Properties=species:S:1:pos:R:3:initial_magmoms:R:1 pbc="T T T"
Si       0.35621343      -0.79703712      -2.15072133       0.00000000
Si      -2.30953104      -0.23252346       0.53961459       0.00000000
Si       1.73666061      -0.60351192       1.65548191       0.00000000
Si      -2.38519809       1.31266449       2.32867305       0.00000000
Si       1.16019009       0.98274312      -3.43350730       0.00000000
Si       1.35104373       0.94534128       3.38632181       0.00000000
Si      -1.58167755      -1.64559951      -3.34447939       0.00000000
Si       1.82063556       2.92741074      -2.26642985       0.00000000
Si       1.80348219      -2.74284504       2.55263063       0.00000000
Si      -3.05689669      -2.33033337       1.70762881       0.00000000
