10
Lattice="16.28999089631971 0.0 0.0 0.0 16.28999089631971 0.0 0.0 0.0 34.69518985606464" Properties=species:S:1:pos:R:3:initial_magmoms:R:1 pbc="T T T"
Si      -1.69271019       1.72818981       0.15883467       0.00000000
Si      -0.67955364      -1.84580361       1.48678829       0.00000000
Si      -0.52243659      -1.39419594      -2.03577610       0.00000000
Si       2.01160323       0.71065125       1.44666675       0.00000000
Si       0.51223905       2.68004709      -1.32091601       0.00000000
Si      -1.91695833      -0.53074449       2.93557349       0.00000000
Si       0.83305431       2.16599985       2.92935264       0.00000000
Si      -0.71620614       3.31646481       1.63212999       0.00000000
Si      -3.42703481       0.59709366       1.47611951       0.00000000
Si       2.61192231       1.88866260      -2.07869407       0.00000000
