10
Lattice="16.28999089631971 0.0 0.0 0.0 16.28999089631971 0.0 0.0 0.0 34.69518985606464" Properties=species:S:1:pos:R:3:initial_magmoms:R:1 pbc="T T T"
Si       1.35011520      -1.34871426       1.35516018       0.00000000
Si      -1.35684297      -1.35492075      -1.35526426       0.00000000
Si      -1.35088083       1.35902583       1.36164818       0.00000000
Si       1.35666378       1.36029645      -1.35467444       0.00000000
Si       0.00016290      -2.71197549      -2.71139591       0.00000000
Si      -2.71476108      -2.70940167       0.00138781       0.00000000
Si       2.71019988       2.71440270       0.00392056       0.00000000
Si      -2.71472850       0.00259011      -2.71094487       0.00000000
Si       2.71515204       0.00252495      -2.71129182       0.00000000
Si       2.71340901      -2.71533123       0.00385117       0.00000000
