10
Lattice="16.28999089631971 0.0 0.0 0.0 16.28999089631971 0.0 0.0 0.0 34.69518985606464" Properties=species:S:1:pos:R:3:initial_magmoms:R:1 pbc="T T T"
Si       1.28278863       1.01647971       1.69319560       0.00000000
Si       1.46552985      -1.20612789      -1.40761933       0.00000000
Si      -1.23536844       1.51723431      -1.39925779       0.00000000
Si      -2.02025322      -0.74639151       1.26869972       0.00000000
Si      -0.67587210       1.95365970       2.64939557       0.00000000
Si       2.31026409      -2.95275798      -0.04048931       0.00000000
Si       0.10494018      -2.53395837      -2.77481875       0.00000000
Si      -2.59605585       0.17378172      -2.76833075       0.00000000
Si      -2.68069869      -2.69105913       0.10162227       0.00000000
Si       2.68385895       2.71239903       0.22371471       0.00000000
