10
Lattice="16.28999089631971 0.0 0.0 0.0 16.28999089631971 0.0 0.0 0.0 34.69518985606464" Properties=species:S:1:pos:R:3:initial_magmoms:R:1 pbc="T T T"
Si      -0.71423505       1.79302401      -1.39360247       0.00000000
Si      -1.38463371      -0.94177377       1.71664956       0.00000000
Si       2.06606070       0.56413899       1.12235532       0.00000000
Si       0.28108395      -1.73283246      -1.71897414       0.00000000
Si       0.35816823      -3.69698292      -0.41318525       0.00000000
Si      -3.12530166       0.90311760       1.84980978       0.00000000
Si      -1.43712009      -3.28569300       1.07135337       0.00000000
Si      -1.60925652       2.84286564       1.85740803       0.00000000
Si       1.19138544       2.44188729      -2.64661995       0.00000000
Si       3.06416529      -1.54849482       1.62973806       0.00000000
