10
Lattice="16.28999089631971 0.0 0.0 0.0 16.28999089631971 0.0 0.0 0.0 34.69518985606464" Properties=species:S:1:pos:R:3:initial_magmoms:R:1 pbc="T T T"
Si      -2.28796308       0.14406876       0.47355491       0.00000000
Si       0.35842887       2.33183205       0.32155520       0.00000000
Si       0.01181025      -1.22854293      -2.10006632       0.00000000
Si       1.33294554      -0.87886179       1.89671770       0.00000000
Si       2.69685837       2.61749349       0.51664636       0.00000000
Si      -2.88992745      -1.65954375       1.85227314       0.00000000
Si       1.00991484      -3.34117674      -1.59268358       0.00000000
Si      -0.69164082       2.99257074       2.46353333       0.00000000
Si      -2.83545369       1.95747156       1.92124721       0.00000000
Si       3.69721098       1.15738821      -1.04373598       0.00000000
