10
Lattice="16.28999089631971 0.0 0.0 0.0 16.28999089631971 0.0 0.0 0.0 34.69518985606464" Properties=species:S:1:pos:R:3:initial_magmoms:R:1 pbc="T T T"
Si       1.72949301      -0.97445151      -1.30707262       0.00000000
Si       1.12088232       1.29119427       1.65954125       0.00000000
Si      -1.00346400       1.74452868      -1.29760083       0.00000000
Si      -1.18996821      -1.71693342       1.40161706       0.00000000
Si       0.36880560      -2.31790410      -2.67614557       0.00000000
Si      -2.35481724       0.40335669      -2.67538228       0.00000000
Si       2.28898935      -0.53802612       2.74158074       0.00000000
Si       0.94460823      -3.23807733       1.36088489       0.00000000
Si       2.69659773       2.77026111       0.05419392       0.00000000
Si       2.96486145      -2.49168582       0.09218517       0.00000000
