10
Lattice="16.28999089631971 0.0 0.0 0.0 16.28999089631971 0.0 0.0 0.0 34.69518985606464" Properties=species:S:1:pos:R:3:initial_magmoms:R:1 pbc="T T T"
Si       1.61367111       0.33625818       1.61946828       0.00000000
Si      -0.73247985      -2.07572067      -0.80284714       0.00000000
Si       0.93032190       1.00071099      -1.90986718       0.00000000
Si      -1.98904158       1.05565716       0.67513408       0.00000000
Si      -2.54653425       1.56571335      -1.69829580       0.00000000
Si      -0.96428655       0.74674989      -3.24511231       0.00000000
Si      -1.52213760      -1.52761104      -2.98916575       0.00000000
Si      -1.15707870       2.38739724       2.56584950       0.00000000
Si       2.86475940       2.25893430       1.09744416       0.00000000
Si       0.63371358       1.17462303       3.57117789       0.00000000
