10
Lattice="16.28999089631971 0.0 0.0 0.0 16.28999089631971 0.0 0.0 0.0 34.69518985606464" Properties=species:S:1:pos:R:3:initial_magmoms:R:1 pbc="T T T"
Si       0.97995753      -0.83836485      -1.95170961       0.00000000
Si      -1.79079228       1.21277421      -1.00532838       0.00000000
Si       2.02139352       0.84230703       0.98617663       0.00000000
Si      -0.14489955      -1.56771702       1.81657177       0.00000000
Si       2.19352995      -1.28205558       2.01166293       0.00000000
Si       2.23104582       1.08431127      -2.47373372       0.00000000
Si      -3.37014036       1.22551299       0.73501801       0.00000000
Si      -0.63371358      -1.17462303      -3.57117789       0.00000000
Si      -0.97793757       3.37742592      -1.62227859       0.00000000
Si      -2.62275516      -0.11896587      -2.89604381       0.00000000
