10
Lattice="16.28999089631971 0.0 0.0 0.0 16.28999089631971 0.0 0.0 0.0 34.69518985606464" Properties=species:S:1:pos:R:3:initial_magmoms:R:1 pbc="T T T"
Si      -0.88330896       1.04840811      -1.92253093       0.00000000
Si      -0.94092669      -0.73987551       2.05246449       0.00000000
Si       0.54749061      -1.81340280      -1.44769230       0.00000000
Si       2.14381287       1.03509918       0.54228612       0.00000000
Si      -2.10429333      -2.53526157       0.62170345       0.00000000
Si      -0.82805328      -0.90728784      -3.28626083       0.00000000
Si       3.19388256       0.37436049      -1.59969201       0.00000000
Si      -0.05447376      -3.61701531      -0.06897408       0.00000000
Si      -3.06357722       1.66493574      -1.65353898       0.00000000
Si       2.83545369      -1.95747156      -1.92124721       0.00000000
