10
Lattice="16.28999089631971 0.0 0.0 0.0 16.28999089631971 0.0 0.0 0.0 34.69518985606464" Properties=species:S:1:pos:R:3:initial_magmoms:R:1 pbc="T T T"
Si      -1.33014366       1.03407684      -1.77295989       0.00000000
Si       2.17916217       1.12325156       0.09662616       0.00000000
Si      -0.31223043      -0.04253319       2.46419254       0.00000000
Si       0.19520307      -2.44483578      -0.42355911       0.00000000
Si       1.34700381      -2.01551283       2.75665828       0.00000000
Si      -3.45033603       1.72909458      -0.94423012       0.00000000
Si       3.42482589       1.11056165      -1.90608541       0.00000000
Si      -1.94860980      -3.47993496      -0.96584523       0.00000000
Si      -0.49922334       3.18157451      -2.55644710       0.00000000
Si      -1.97996805      -0.31234446      -3.64709101       0.00000000
