10
Lattice="16.28999089631971 0.0 0.0 0.0 16.28999089631971 0.0 0.0 0.0 34.69518985606464" Properties=species:S:1:pos:R:3:initial_magmoms:R:1 pbc="T T T"
Si       1.34666172      -1.28480859       1.44485423       0.00000000
Si       1.75575249       1.00887228      -1.26119317       0.00000000
Si      -1.37771046       1.42568451       1.41779544       0.00000000
Si      -0.84999591      -1.87234002      -1.32424470       0.00000000
Si       3.20336334      -0.98163540      -1.44841886       0.00000000
Si       2.51963946      -2.76918597       0.03275922       0.00000000
Si       2.69298135       2.74665690       0.02937296       0.00000000
Si      -0.00508248      -2.63480813       2.80512502       0.00000000
Si      -1.13935518      -0.94568337      -3.57648421       0.00000000
Si       2.70941796       0.07667703       2.80283513       0.00000000
