10
Lattice="16.28999089631971 0.0 0.0 0.0 16.28999089631971 0.0 0.0 0.0 34.69518985606464" Properties=species:S:1:pos:R:3:initial_magmoms:R:1 pbc="T T T"
Si       1.35452979       1.35648459       1.35498670       0.00000000
Si       1.35633798      -1.35743430      -1.35703372       0.00000000
Si      -1.35751086       1.35627282      -1.35748476       0.00000000
Si      -1.35848826      -1.35982567       1.35717250       0.00000000
Si       0.00706986       2.70855459       2.71077139       0.00000000
Si      -0.00288333       2.71293660      -2.71399805       0.00000000
Si       2.71427238       2.71290402      -0.00048573       0.00000000
Si       0.00013032      -2.71089416       2.71684306       0.00000000
Si       2.71379997      -0.00232947      -2.71490012       0.00000000
Si      -0.00182448      -2.71599952      -2.71313067       0.00000000
