10
Lattice="16.28999089631971 0.0 0.0 0.0 16.28999089631971 0.0 0.0 0.0 34.69518985606464" Properties=species:S:1:pos:R:3:initial_magmoms:R:1 pbc="T T T"
Si      -2.19410010       0.44255043      -0.76738864       0.00000000
Si       0.95904117       2.10474945       0.50956854       0.00000000
Si       1.52899569      -0.62737677      -1.71116772       0.00000000
Si       0.02660157      -1.76958270       1.61329253       0.00000000
Si       1.48678830       1.67153319       2.74734014       0.00000000
Si       0.01334151      -3.57569477       0.12344555       0.00000000
Si       1.62425961      -2.98466099      -1.53477728       0.00000000
Si       0.51391692       0.35776098      -3.69486631       0.00000000
Si      -2.07547632       2.55495618      -1.98761915       0.00000000
Si       2.78228313       2.59410105      -1.12627588       0.00000000
