10
Lattice="16.28999089631971 0.0 0.0 0.0 16.28999089631971 0.0 0.0 0.0 34.69518985606464" Properties=species:S:1:pos:R:3:initial_magmoms:R:1 pbc="T T T"
Si      -0.06864606      -2.42519004      -0.31465085       0.00000000
Si       0.28935927      -0.92665665       2.25223951       0.00000000
Si      -2.23365222       0.90704349      -0.97937637       0.00000000
Si       2.63720439       1.00323594      -1.18331481       0.00000000
Si       1.17701766      -2.43787995      -2.31736242       0.00000000
Si       2.32567443       2.76086178       0.20883046       0.00000000
Si      -1.52710605       3.02834358      -1.80689180       0.00000000
Si       1.13935518       0.94568337       3.57648421       0.00000000
Si      -2.74703157      -0.36686709      -2.96772411       0.00000000
Si       1.15041609      -0.66829725      -3.93065495       0.00000000
