10
Lattice="16.28999089631971 0.0 0.0 0.0 16.28999089631971 0.0 0.0 0.0 34.69518985606464" Properties=species:S:1:pos:R:3:initial_magmoms:R:1 pbc="T T T"
Si      -2.24718921       0.50289690      -0.80246549       0.00000000
Si       2.01406302      -1.00836617      -1.06444902       0.00000000
Si      -0.36062802      -1.38787430       2.03827415       0.00000000
Si       0.78920163       2.36153703       1.14070909       0.00000000
Si      -2.26044927      -1.30321517      -2.29231247       0.00000000
Si       3.49888023       0.15698363       0.37734510       0.00000000
Si      -3.49285293       0.51558681       1.20024607       0.00000000
Si      -0.87884550      -3.56876321       0.78452807       0.00000000
Si       3.04487793       2.49558744       0.24116640       0.00000000
Si      -2.27379078       2.27247960      -2.41575803       0.00000000
