10
Lattice="16.28999089631971 0.0 0.0 0.0 16.28999089631971 0.0 0.0 0.0 34.69518985606464" Properties=species:S:1:pos:R:3:initial_magmoms:R:1 pbc="T T T"
Si       1.35759231      -1.35829278       1.35842153       0.00000000
Si      -1.35909099       1.35697329       1.35932360       0.00000000
Si      -1.36275624      -1.36148562      -1.35798090       0.00000000
Si       1.37062431       1.35886293      -1.37983194       0.00000000
Si       2.47915881      -0.16421949      -2.89100954       0.00000000
Si      -2.71450044      -2.71148516       0.00228988       0.00000000
Si       2.71715571      -2.70984313       0.00065921       0.00000000
Si      -2.71207323       2.71606428      -0.00062451       0.00000000
Si      -2.71371852       0.00030951       2.71583689       0.00000000
Si       0.00013032      -2.71339761       2.71628793       0.00000000
