10
Lattice="16.28999089631971 0.0 0.0 0.0 16.28999089631971 0.0 0.0 0.0 34.69518985606464" Properties=species:S:1:pos:R:3:initial_magmoms:R:1 pbc="T T T"
Si      -1.35560493      -1.35462753      -1.35713780       0.00000000
Si       1.35975888       1.35998694      -1.35769293       0.00000000
Si       1.36700793      -1.36008468       1.35280090       0.00000000
Si      -1.36329381       1.36661697       1.35130901       0.00000000
Si      -0.00270414       2.69444745       2.71850843       0.00000000
Si      -0.00076563      -2.70076797       2.71847373       0.00000000
Si       2.71446786      -2.71215468      -0.00298379       0.00000000
Si       0.00242721      -2.71236645      -2.71545525       0.00000000
Si      -2.71477737      -2.71321353       0.00000000       0.00000000
Si      -2.71324611       0.00335574      -2.71524708       0.00000000
