10
Lattice="16.28999089631971 0.0 0.0 0.0 16.28999089631971 0.0 0.0 0.0 34.69518985606464" Properties=species:S:1:pos:R:3:initial_magmoms:R:1 pbc="T T T"
Si      -1.88537202       0.83378736      -1.26398117       0.00000000
Si       0.82015263      -1.87937730      -1.28195329       0.00000000
Si       1.66294836       1.76920803       0.08521143       0.00000000
Si       0.29496303      -1.18956096       2.11557508       0.00000000
Si       2.18792619      -0.53869401      -2.64762611       0.00000000
Si      -0.54237555       2.18800764      -2.64911801       0.00000000
Si       1.09792971       0.59787558       3.42913570       0.00000000
Si       2.95617888      -1.94976639       1.37854475       0.00000000
Si       3.51725535       0.82174905      -1.26155250       0.00000000
Si       0.81821412       3.51583812      -1.28191859       0.00000000
