10
Lattice="16.28999089631971 0.0 0.0 0.0 16.28999089631971 0.0 0.0 0.0 34.69518985606464" Properties=species:S:1:pos:R:3:initial_magmoms:R:1 pbc="T T T"
Si       1.48577832      -0.49119237      -1.78600529       0.00000000
Si       0.19714158       2.35372581       0.58510001       0.00000000
Si       2.11546827      -0.94579740       0.79923884       0.00000000
Si      -2.36369529      -0.64441611       0.10117123       0.00000000
Si      -2.74931217       0.90443709       1.83201113       0.00000000
Si      -2.08679787       2.93485527       0.75059616       0.00000000
Si      -2.29687371      -2.78374923       0.99831995       0.00000000
Si       1.59477471       3.11440365      -1.52204413       0.00000000
Si      -0.24086394      -3.08579841       2.25015780       0.00000000
Si       2.39044347      -0.15451065       3.00023352       0.00000000
