10
Lattice="16.28999089631971 0.0 0.0 0.0 16.28999089631971 0.0 0.0 0.0 34.69518985606464" Properties=species:S:1:pos:R:3:initial_magmoms:R:1 pbc="T T T"
Si      -0.93164139       0.75427587      -1.98623134       0.00000000
Si       1.20567177       1.87496271       0.79101608       0.00000000
Si      -2.10769794      -0.18034659       1.09792990       0.00000000
Si       1.52886537      -1.77223797      -0.51626471       0.00000000
Si       2.05661250      -2.20545423       1.72150689       0.00000000
Si       1.03104297       1.69875378      -2.90496048       0.00000000
Si       1.74508254      -0.44782839       3.11365216       0.00000000
Si      -0.60861069       3.21659082       1.50316994       0.00000000
Si      -1.50565212      -1.32203124      -3.01345240       0.00000000
Si       2.05913745       2.90302461      -1.13210468       0.00000000
