10
Lattice="16.28999089631971 0.0 0.0 0.0 16.28999089631971 0.0 0.0 0.0 34.69518985606464" Properties=species:S:1:pos:R:3:initial_magmoms:R:1 pbc="T T T"
Si       1.23551505      -1.70619831      -0.96785756       0.00000000
Si      -1.19549052       1.66122162      -1.16947142       0.00000000
Si      -1.96268436      -0.94447791       0.91872914       0.00000000
Si       1.02809448       1.20427083       1.77285580       0.00000000
Si      -2.96078895       1.16815590       0.41134640       0.00000000
Si       2.99273364      -0.19528452      -1.70190410       0.00000000
Si      -1.03104297      -1.69875378       2.90496048       0.00000000
Si      -0.74516976      -2.98968741      -1.76046961       0.00000000
Si       0.17462880       0.17620893       3.69597656       0.00000000
Si      -0.02875185       3.67520319      -0.76704169       0.00000000
