10
Lattice="16.28999089631971 0.0 0.0 0.0 16.28999089631971 0.0 0.0 0.0 34.69518985606464" Properties=species:S:1:pos:R:3:initial_magmoms:R:1 pbc="T T T"
Si       1.33141102       1.36539522      -1.34687149       0.00000000
Si       1.35222964      -1.35912357       1.36119714       0.00000000
Si      -1.36102417       1.35610992       1.36071141       0.00000000
Si      -1.38397626      -1.37572308      -1.38769735       0.00000000
Si      -0.17866546       2.49323337      -2.80632547       0.00000000
Si       2.56881571       0.05033610      -2.79565669       0.00000000
Si       2.71146724      -2.71350349      -0.00235927       0.00000000
Si       2.71135321       2.71438641       0.00343483       0.00000000
Si      -2.71692180      -2.71150471       0.00239397       0.00000000
Si       2.71102741      -0.00060273       2.71812678       0.00000000
