10
Lattice="16.28999089631971 0.0 0.0 0.0 16.28999089631971 0.0 0.0 0.0 34.69518985606464" Properties=species:S:1:pos:R:3:initial_magmoms:R:1 pbc="T T T"
Si      -1.71396864      -0.93919995       1.40041804       0.00000000
Si      -1.11364956       0.23881140      -2.12494279       0.00000000
Si       1.03249278       1.73377728       1.37111099       0.00000000
Si       2.35887345      -1.80915111      -1.93255785       0.00000000
Si      -0.20515626      -2.19864501       2.85289134       0.00000000
Si      -3.21333282       1.03019589      -1.36716472       0.00000000
Si       2.50590699       0.51464997       2.86017039       0.00000000
Si       2.92830669      -2.61545724       0.17390273       0.00000000
Si       0.00518022       1.85526810      -3.54304007       0.00000000
Si       2.77055433       2.87469630       0.27488290       0.00000000
