10
Lattice="16.28999089631971 0.0 0.0 0.0 16.28999089631971 0.0 0.0 0.0 34.69518985606464" Properties=species:S:1:pos:R:3:initial_magmoms:R:1 pbc="T T T"
Si       1.19549052      -1.66122162       1.16947142       0.00000000
Si       1.16673867       2.01398157       0.40242973       0.00000000
Si      -0.88011612      -0.16786845      -2.21473399       0.00000000
Si      -1.76529843      -0.49306572       1.58081782       0.00000000
Si      -0.76719384      -2.60569953       2.08820056       0.00000000
Si      -2.63997369       1.38468258      -2.18815746       0.00000000
Si       2.22358500      -0.45695079       2.94232722       0.00000000
Si       1.92010230       1.89286542       2.63714816       0.00000000
Si      -0.29382273       3.79666143       0.23415797       0.00000000
Si       3.09545838       2.26735623      -0.96230632       0.00000000
