10
Lattice="16.28999089631971 0.0 0.0 0.0 16.28999089631971 0.0 0.0 0.0 34.69518985606464" Properties=species:S:1:pos:R:3:initial_magmoms:R:1 pbc="T T T"
Si       0.85346568       1.02806190      -1.92312075       0.00000000
Si      -1.20567177      -1.87496271      -0.79101608       0.00000000
Si      -1.81428246       1.34162811       0.71215386       0.00000000
Si       1.95897024      -0.96611103       1.07121459       0.00000000
Si       2.01606669       0.90515385       2.43449344       0.00000000
Si       0.53941077      -2.32279110       2.32263609       0.00000000
Si       0.10484244       2.57241906       2.27413219       0.00000000
Si      -2.93311224      -0.27482859       2.13025115       0.00000000
Si      -2.13731316      -1.12068684      -2.77724741       0.00000000
Si      -0.17462880      -0.17620893      -3.69597656       0.00000000
