10
Lattice="16.28999089631971 0.0 0.0 0.0 16.28999089631971 0.0 0.0 0.0 34.69518985606464" Properties=species:S:1:pos:R:3:initial_magmoms:R:1 pbc="T T T"
Si      -1.34198649      -1.35565380       1.36527036       0.00000000
Si       1.36733373       1.36435266       1.36499280       0.00000000
Si       1.38368889      -1.29380067      -1.41741726       0.00000000
Si      -1.59189138       1.17577962      -1.34444977       0.00000000
Si       2.72696229      -2.68697034       0.00394831       0.00000000
Si      -2.71489140       2.71334385       0.01427708       0.00000000
Si      -2.70462870       0.00247608       2.72730019       0.00000000
Si       2.72334591       2.70907587      -0.01926972       0.00000000
Si      -2.71347417      -2.72715777      -0.01933564       0.00000000
Si       0.01049076      -2.71445157       2.72688385       0.00000000
