10
Lattice="16.28999089631971 0.0 0.0 0.0 16.28999089631971 0.0 0.0 0.0 34.69518985606464" Properties=species:S:1:pos:R:3:initial_magmoms:R:1 pbc="T T T"
Si      -0.95505012      -1.52950068      -1.40071499       0.00000000
Si       1.66798197      -0.90424161       1.43416117       0.00000000
Si      -1.94064399       0.85786398       1.10056673       0.00000000
Si       1.26853488       1.71608634      -1.37729572       0.00000000
Si       1.17090891       2.92896385       0.62798329       0.00000000
Si      -2.12315715       0.29971971      -2.48275448       0.00000000
Si       2.38514922       1.33278264       1.83142132       0.00000000
Si       1.00361061      -2.46668067      -2.35691495       0.00000000
Si      -1.07849574       3.04757785       1.52481975       0.00000000
Si      -3.52916334       1.15059528      -0.62659548       0.00000000
