10
Lattice="16.28999089631971 0.0 0.0 0.0 16.28999089631971 0.0 0.0 0.0 34.69518985606464" Properties=species:S:1:pos:R:3:initial_magmoms:R:1 pbc="T T T"
Si       0.36062802       1.38787430      -2.03827415       0.00000000
Si       1.69147215      -1.31069340       1.38326330       0.00000000
Si      -1.10508102       1.41775456       1.82746437       0.00000000
Si      -0.51821748      -2.18088891      -1.25374608       0.00000000
Si       2.00358855      -2.68172496      -0.72342981       0.00000000
Si      -3.13222491       1.90346111      -0.83802808       0.00000000
Si      -2.17548063      -0.26194320       3.14365454       0.00000000
Si      -1.88656119       1.89077120      -2.84073965       0.00000000
Si       2.37469104       0.37950813      -3.10272317       0.00000000
Si       0.59541579       2.50514855       3.08586620       0.00000000
