10
Lattice="16.28999089631971 0.0 0.0 0.0 16.28999089631971 0.0 0.0 0.0 34.69518985606464" Properties=species:S:1:pos:R:3:initial_magmoms:R:1 pbc="T T T"
Si       1.49567842      -1.20520588      -1.31925064       0.00000000
Si      -1.23303897       1.53570717      -1.31567703       0.00000000
Si      -1.60484193      -1.08059226       1.39356777       0.00000000
Si       1.65540676       0.98942202       1.43499385       0.00000000
Si       0.24209565       1.05977853       3.47396191       0.00000000
Si       0.13037847      -2.52847121      -2.68145394       0.00000000
Si      -2.58593976       0.18963189      -2.68159272       0.00000000
Si       2.86434305      -2.53487780       0.22086970       0.00000000
Si      -2.80787472       2.68594407       0.05301428       0.00000000
Si      -2.88691380      -2.62579229       0.09097084       0.00000000
