10
Lattice="16.28999089631971 0.0 0.0 0.0 16.28999089631971 0.0 0.0 0.0 34.69518985606464" Properties=species:S:1:pos:R:3:initial_magmoms:R:1 pbc="T T T"
Si       1.39887117       1.89620487       0.43629226       0.00000000
Si      -1.10034063       1.19819466      -1.80869595       0.00000000
Si      -2.25368892       0.02293632       0.93090716       0.00000000
Si       0.99751815      -1.49618926       1.74516903       0.00000000
Si       1.82074959      -1.36641660      -1.75453673       0.00000000
Si       3.22739109      -1.53177313       1.02118409       0.00000000
Si       3.66768717       0.77395419       0.32585741       0.00000000
Si      -2.17486161      -0.37582659      -3.14800042       0.00000000
Si       0.91549800      -0.39438090       3.73705568       0.00000000
Si       0.61771680       2.40011973      -3.09509023       0.00000000
