10
Lattice="16.28999089631971 0.0 0.0 0.0 16.28999089631971 0.0 0.0 0.0 34.69518985606464" Properties=species:S:1:pos:R:3:initial_magmoms:R:1 pbc="T T T"
Si       1.62175162       1.30117190       1.02663124       0.00000000
Si      -0.52590636      -1.87896909       1.35602756       0.00000000
Si       1.51178923      -0.82509045      -1.67196213       0.00000000
Si      -1.80584424       1.51098710      -0.73907735       0.00000000
Si      -1.72382409       0.40917874      -2.73096401       0.00000000
Si       0.20479788       2.25016214       2.59478531       0.00000000
Si       0.50604885       0.37359486      -3.45494894       0.00000000
Si       2.80203380      -0.41689205       2.14298429       0.00000000
Si      -2.46959658      -1.79251806      -2.00965061       0.00000000
Si       1.68289614      -2.56015173       2.12001607       0.00000000
