10
Lattice="16.28999089631971 0.0 0.0 0.0 16.28999089631971 0.0 0.0 0.0 34.69518985606464" Properties=species:S:1:pos:R:3:initial_magmoms:R:1 pbc="T T T"
Si      -0.08202015       1.10180836       1.99188666       0.00000000
Si       2.22987294      -0.03558388      -0.72398493       0.00000000
Si      -0.74577249      -2.20169680       0.72131340       0.00000000
Si      -0.99751815       1.49618926      -1.74516903       0.00000000
Si       1.72382409      -0.40917874       2.73096401       0.00000000
Si      -0.35691390      -2.86821844      -1.52717903       0.00000000
Si       1.63113399      -1.70180557      -2.28707350       0.00000000
Si       0.82323144       0.12977266      -3.49970576       0.00000000
Si       3.23561332      -1.23426919       1.05900187       0.00000000
Si       0.40135302       3.39239413      -1.30887677       0.00000000
