10
Lattice="16.28999089631971 0.0 0.0 0.0 16.28999089631971 0.0 0.0 0.0 34.69518985606464" Properties=species:S:1:pos:R:3:initial_magmoms:R:1 pbc="T T T"
Si      -2.22987294       0.03558388       0.72398493       0.00000000
Si      -0.59873895      -1.66622169      -1.56308857       0.00000000
Si       1.00574038      -1.19868531       1.78298680       0.00000000
Si       0.44029608       2.30572732      -0.69532669       0.00000000
Si      -1.40664150       0.16535653      -2.77572083       0.00000000
Si      -0.50604885      -0.37359486       3.45494894       0.00000000
Si       3.13148276      -0.12396690       1.94817069       0.00000000
Si      -3.22739109       1.53177313      -1.02118409       0.00000000
Si      -2.31189309       1.13739224       2.71587159       0.00000000
Si       1.46097909       3.39756457       1.16003432       0.00000000
