10
Lattice="16.28999089631971 0.0 0.0 0.0 16.28999089631971 0.0 0.0 0.0 34.69518985606464" Properties=species:S:1:pos:R:3:initial_magmoms:R:1 pbc="T T T"
Si       1.34718300       1.35571896       1.38080341       0.00000000
Si      -1.38706092       1.31111694      -1.39363023       0.00000000
Si      -1.37062431      -1.35886293       1.37983194       0.00000000
Si       1.10853450      -1.52308242      -1.51117759       0.00000000
Si      -2.32428978      -0.42666768      -2.68419636       0.00000000
Si       2.68624125       2.70961344      -0.00978058       0.00000000
Si       2.67947694      -2.73292443      -0.00960016       0.00000000
Si       2.70242904      -0.00109143       2.73880859       0.00000000
Si      -2.74668948       2.70343953       0.00207130       0.00000000
Si      -0.87667893      -2.41717536      -2.87142205       0.00000000
