10
Lattice="16.28999089631971 0.0 0.0 0.0 16.28999089631971 0.0 0.0 0.0 34.69518985606464" Properties=species:S:1:pos:R:3:initial_magmoms:R:1 pbc="T T T"
Si       1.35524604      -1.35681039       1.35800519       0.00000000
Si      -1.35961227       1.35728280       1.35786640       0.00000000
Si      -1.34718300      -1.35571896      -1.38080341       0.00000000
Si       1.33905825       1.35389448      -1.39058399       0.00000000
Si       2.53760474      -0.21968694      -2.80903170       0.00000000
Si       2.71342108       0.00107514       2.71510829       0.00000000
Si      -0.00211770      -2.71414206       2.71493482       0.00000000
Si       2.71627020      -2.71292031      -0.00270623       0.00000000
Si      -0.00193851       2.71674846       2.71483073       0.00000000
Si      -2.71780731      -2.71458189      -0.00097147       0.00000000
