10
Lattice="16.28999089631971 0.0 0.0 0.0 16.28999089631971 0.0 0.0 0.0 34.69518985606464" Properties=species:S:1:pos:R:3:initial_magmoms:R:1 pbc="T T T"
Si       1.35136953      -1.35648459      -1.36255026       0.00000000
Si      -1.36412460       1.35948195      -1.36057263       0.00000000
Si       1.37205783       1.35317772       1.36421563       0.00000000
Si      -1.38256488      -1.35755973       1.37663651       0.00000000
Si      -0.15822477       2.29241025       2.84025391       0.00000000
Si       2.70568260      -2.70866862       0.00312257       0.00000000
Si       2.70996945       0.00314397      -2.71982684       0.00000000
Si       2.70249725       2.72725551      -0.00520428       0.00000000
Si      -2.71189404      -2.71800279      -0.00943710       0.00000000
Si      -0.00469152      -2.71365336      -2.72069422       0.00000000
