10
Lattice="16.28999089631971 0.0 0.0 0.0 16.28999089631971 0.0 0.0 0.0 34.69518985606464" Properties=species:S:1:pos:R:3:initial_magmoms:R:1 pbc="T T T"
Si       2.14581672      -0.90974763       0.18752761       0.00000000
Si      -0.02249649       0.36422811       2.35660270       0.00000000
Si      -1.98749403      -1.19428506      -0.59769437       0.00000000
Si       0.12968469       2.03434407      -1.26013000       0.00000000
Si       0.34588557       2.68609068       2.11599142       0.00000000
Si      -0.94429872       3.38900418       0.29941966       0.00000000
Si      -1.31582475       1.59207057      -3.05244981       0.00000000
Si       1.73503161      -3.05947377       1.16135274       0.00000000
Si       3.29680997       0.46848411       1.74634866       0.00000000
Si      -1.17986841      -3.32167761      -1.36976686       0.00000000
