10
Lattice="16.28999089631971 0.0 0.0 0.0 16.28999089631971 0.0 0.0 0.0 34.69518985606464" Properties=species:S:1:pos:R:3:initial_magmoms:R:1 pbc="T T T"
Si      -1.53028260       0.93923253       1.47603829       0.00000000
Si       1.33043942       1.37407779      -1.36941991       0.00000000
Si      -1.37205783      -1.35317772      -1.36421563       0.00000000
Si       1.83405430      -0.91944018       1.37778145       0.00000000
Si      -0.13748760       2.41189740       2.62365172       0.00000000
Si      -1.81055205      -0.86525964       3.07201791       0.00000000
Si       2.68919622       2.70798444       0.00707782       0.00000000
Si       2.70434592      -2.70137070       0.01759047       0.00000000
Si       2.69448559       0.00493587      -2.72444131       0.00000000
Si      -0.02068830      -2.70966231      -2.72676589       0.00000000
