10
Lattice="16.28999089631971 0.0 0.0 0.0 16.28999089631971 0.0 0.0 0.0 34.69518985606464" Properties=species:S:1:pos:R:3:initial_magmoms:R:1 pbc="T T T"
Si      -0.74016873       2.07448263       0.80197976       0.00000000
Si      -1.18574910      -0.56656620      -1.97384515       0.00000000
Si       0.35259705      -2.04937974       1.23185340       0.00000000
Si       2.12128380       0.92623311      -0.70587403       0.00000000
Si       2.84224662      -1.22609943      -1.29270880       0.00000000
Si       1.53621216      -3.03168303      -0.49215154       0.00000000
Si       1.00048293       2.83770171       2.22351187       0.00000000
Si       0.19857510       0.39631941      -3.74777650       0.00000000
Si      -0.97231752       3.45455514      -1.16908977       0.00000000
Si       3.03989319       1.77823269       1.41112355       0.00000000
