10
Lattice="16.28999089631971 0.0 0.0 0.0 16.28999089631971 0.0 0.0 0.0 34.69518985606464" Properties=species:S:1:pos:R:3:initial_magmoms:R:1 pbc="T T T"
Si       1.23560532       1.87247034      -0.74927774       0.00000000
Si      -2.22224922       0.85418244      -0.16004900       0.00000000
Si      -0.07855038       0.22657761       2.46068833       0.00000000
Si       0.67347162      -2.37628746      -0.37234899       0.00000000
Si      -2.72722293       0.22553505       2.08133091       0.00000000
Si      -2.02813758      -2.04232617       1.95507504       0.00000000
Si       2.19488921      -2.32772697       1.52596469       0.00000000
Si      -1.52831151      -3.24790020      -0.06186156       0.00000000
Si      -3.12324912      -0.20988036      -2.08934550       0.00000000
Si       3.41587358       1.25594271      -1.01826970       0.00000000
