10
Lattice="16.28999089631971 0.0 0.0 0.0 16.28999089631971 0.0 0.0 0.0 34.69518985606464" Properties=species:S:1:pos:R:3:initial_magmoms:R:1 pbc="T T T"
Si       0.17855469      -1.86017139       1.41310118       0.00000000
Si       2.22964488       0.03225420      -0.75999856       0.00000000
Si      -0.57321252       1.68269184       1.55000847       0.00000000
Si      -1.50659694       0.39957741      -1.81764732       0.00000000
Si      -0.35471475       3.45160665      -0.00430221       0.00000000
Si      -2.36864908       0.52709553       2.60214069       0.00000000
Si       1.92096567      -1.09626813       2.83723543       0.00000000
Si      -1.24496325       2.75441094      -2.08525147       0.00000000
Si      -1.84024383      -1.80946062       2.69286867       0.00000000
Si       3.58410951      -0.51445449       1.22564296       0.00000000
