10
Lattice="16.28999089631971 0.0 0.0 0.0 16.28999089631971 0.0 0.0 0.0 34.69518985606464" Properties=species:S:1:pos:R:3:initial_magmoms:R:1 pbc="T T T"
Si       1.35887922      -1.35426915      -1.35495201       0.00000000
Si      -1.35713619      -1.35466011       1.35762354       0.00000000
Si       1.35796698       1.35995436       1.35762354       0.00000000
Si      -1.35938421       1.36475991      -1.36123184       0.00000000
Si       0.00024435      -2.68656309      -2.72227632       0.00000000
Si       2.71264029      -2.71319724       0.00121433       0.00000000
Si       0.00123804      -2.71182888       2.71548994       0.00000000
Si       2.71246693       2.71639904       0.00000000       0.00000000
Si       2.71446766       0.00262269       2.71455317       0.00000000
Si      -2.71438641       0.00236205       2.71562872       0.00000000
