10
Lattice="16.28999089631971 0.0 0.0 0.0 16.28999089631971 0.0 0.0 0.0 34.69518985606464" Properties=species:S:1:pos:R:3:initial_magmoms:R:1 pbc="T T T"
Si      -0.58111317      -0.75504150       2.14929882       0.00000000
Si      -1.74065166      -0.76321908      -1.42153211       0.00000000
Si      -0.31239333       2.35323711       0.28845597       0.00000000
Si       2.03941026      -1.05946902      -0.81238832       0.00000000
Si       1.12080087      -1.91146860      -2.92938591       0.00000000
Si      -1.00048293      -2.83770171      -2.22351187       0.00000000
Si      -3.66937137      -1.01659374      -0.05679606       0.00000000
Si      -2.91600774      -1.13770989       2.17792237       0.00000000
Si       3.75573022       0.65060631      -0.57077089       0.00000000
Si      -0.27635985      -3.09014784       2.36021100       0.00000000
