10
Lattice="16.28999089631971 0.0 0.0 0.0 16.28999089631971 0.0 0.0 0.0 34.69518985606464" Properties=species:S:1:pos:R:3:initial_magmoms:R:1 pbc="T T T"
Si      -1.54758258      -1.08150939      -1.43433465       0.00000000
Si      -0.34158501       0.15081282       2.45243087       0.00000000
Si       1.18996821       1.71693342      -1.40161706       0.00000000
Si       2.13457644      -1.52114391      -0.04073218       0.00000000
Si       2.05776909      -0.57019887       2.27066266       0.00000000
Si       0.19694610      -1.98594648      -2.71649610       0.00000000
Si      -1.08045054       2.46594762       2.53545650       0.00000000
Si      -2.52677122       0.74375253      -2.70202820       0.00000000
Si       2.31085053       3.00812769       0.25792419       0.00000000
Si       3.47895756       1.17890730       1.33996368       0.00000000
