10
Lattice="16.28999089631971 0.0 0.0 0.0 16.28999089631971 0.0 0.0 0.0 34.69518985606464" Properties=species:S:1:pos:R:3:initial_magmoms:R:1 pbc="T T T"
Si       1.36529996       1.32326534       1.36220331       0.00000000
Si       1.35072204      -1.36106669      -1.35935830       0.00000000
Si      -1.36154409       1.35405832      -1.35862970       0.00000000
Si      -1.37420142      -1.35909560       1.38600422       0.00000000
Si      -0.13037847       2.52847121       2.68145394       0.00000000
Si       2.71050698      -2.71072577       0.00045104       0.00000000
Si       2.71231517      -0.00057224      -2.71555933       0.00000000
Si       2.71586639       2.71380254       0.00301848       0.00000000
Si      -0.00290509       2.71458446      -2.71562872       0.00000000
Si      -2.71273443      -2.71784450       0.00437160       0.00000000
