10
Lattice="16.28999089631971 0.0 0.0 0.0 16.28999089631971 0.0 0.0 0.0 34.69518985606464" Properties=species:S:1:pos:R:3:initial_magmoms:R:1 pbc="T T T"
Si       1.74452868      -0.90443709      -1.28216146       0.00000000
Si       1.54758258       1.08150939       1.43433465       0.00000000
Si      -0.97918864       1.82526192      -1.26769356       0.00000000
Si      -1.83433056      -1.80216270       0.10301008       0.00000000
Si       0.39565152      -2.24176464      -2.64946496       0.00000000
Si      -2.33794544       0.49135527      -2.64419129       0.00000000
Si       3.02171355      -2.38430214       0.22652502       0.00000000
Si       2.73755079       2.79844281       0.03271758       0.00000000
Si      -0.96403894      -3.58409322      -1.25718091       0.00000000
Si      -2.36736773       3.12743565       0.21046114       0.00000000
