10
Lattice="16.28999089631971 0.0 0.0 0.0 16.28999089631971 0.0 0.0 0.0 34.69518985606464" Properties=species:S:1:pos:R:3:initial_magmoms:R:1 pbc="T T T"
Si      -0.21849777      -1.76891481       1.55431068       0.00000000
Si      -0.89024850      -0.69719571      -2.08094926       0.00000000
Si      -0.66981222       2.26010718       0.34650105       0.00000000
Si       2.39632416       0.17495460      -0.27242678       0.00000000
Si       0.35471475      -3.45160665       0.00430221       0.00000000
Si       1.28036142      -1.02201831       3.16690931       0.00000000
Si      -2.85357713       0.66127626      -2.08369018       0.00000000
Si      -1.54709877       2.72429073      -1.84797093       0.00000000
Si       1.37192751       3.26827899       1.01844317       0.00000000
Si      -1.15188219      -3.05202924      -1.81334511       0.00000000
