10
Lattice="16.28999089631971 0.0 0.0 0.0 16.28999089631971 0.0 0.0 0.0 34.69518985606464" Properties=species:S:1:pos:R:3:initial_magmoms:R:1 pbc="T T T"
Si       0.07566705      -1.54518795      -1.78905846       0.00000000
Si       0.26163369       2.35483353      -0.26760415       0.00000000
Si       1.50659694      -0.39957741       1.81764732       0.00000000
Si      -2.28920831      -0.42182955       0.61008056       0.00000000
Si       2.38519809      -1.31266449      -2.32867305       0.00000000
Si      -2.28049316      -2.77084755       0.93180923       0.00000000
Si       0.93338442       1.28311443       3.36765579       0.00000000
Si       1.15188219       3.05202924       1.81334511       0.00000000
Si      -0.67169860      -3.64299786      -0.62104425       0.00000000
Si      -2.63427938       0.26096580       2.85839951       0.00000000
