10
Lattice="16.28999089631971 0.0 0.0 0.0 16.28999089631971 0.0 0.0 0.0 34.69518985606464" Properties=species:S:1:pos:R:3:initial_magmoms:R:1 pbc="T T T"
Si       1.35073422      -1.36063854      -1.36147471       0.00000000
Si      -1.35944285       1.35721764      -1.35953177       0.00000000
Si      -1.35056643      -1.39053721       1.35918482       0.00000000
Si       1.35058761       1.37373570       1.38697568       0.00000000
Si       2.71107954      -2.70996589      -0.00350422       0.00000000
Si       2.70953199       2.71326240       0.00340013       0.00000000
Si      -2.71586639      -2.71380254      -0.00301848       0.00000000
Si       2.71153566       0.00068418      -2.71850843       0.00000000
Si      -0.00355122      -2.71437478      -2.71857782       0.00000000
Si      -0.00166158       2.71568961      -2.71889007       0.00000000
