10
Lattice="16.28999089631971 0.0 0.0 0.0 16.28999089631971 0.0 0.0 0.0 34.69518985606464" Properties=species:S:1:pos:R:3:initial_magmoms:R:1 pbc="T T T"
Si       0.94092669       0.73987551      -2.05246449       0.00000000
Si       1.72890657      -0.96044211       1.45938459       0.00000000
Si      -0.67833189       1.92567348       1.38038360       0.00000000
Si      -1.16336664      -1.79538606      -1.43076104       0.00000000
Si      -1.92214507       0.51458481       2.84175764       0.00000000
Si       1.89081288      -2.92153005       0.09888135       0.00000000
Si      -3.43680623       0.75891852      -0.49603741       0.00000000
Si      -3.15230983      -0.99839781       1.31487904       0.00000000
Si       0.88645293      -2.87713980      -2.12143857       0.00000000
Si      -2.37322657       2.90408346      -0.00884728       0.00000000
