10
Lattice="16.28999089631971 0.0 0.0 0.0 16.28999089631971 0.0 0.0 0.0 34.51877397758722" Properties=species:S:1:pos:R:3:initial_magmoms:R:1 pbc="T T T"
Si      -0.38952648       0.88956432      -2.15003756       0.00000000
Si      -0.48791596       1.76132434       1.49991061       0.00000000
Si      -1.89890154      -1.46680047      -0.11888272       0.00000000
Si       2.19646052      -1.01095740       0.52648063       0.00000000
Si      -1.11020490      -3.32832393       1.00466948       0.00000000
Si       1.15686530       3.39052634       0.95851785       0.00000000
Si       1.54253105       1.96859178      -2.87310272       0.00000000
Si       1.97162594      -1.66806342       2.81752746       0.00000000
Si       2.34934217      -2.88691380      -0.92465492       0.00000000
Si      -0.21097668       1.10449458       3.72947946       0.00000000
