10
Lattice="16.28999089631971 0.0 0.0 0.0 16.28999089631971 0.0 0.0 0.0 34.51877397758722" Properties=species:S:1:pos:R:3:initial_magmoms:R:1 pbc="T T T"
Si      -2.14746509       0.77237406      -0.43307278       0.00000000
Si      -0.02552643      -0.09962964       2.33119218       0.00000000
Si       1.62862533       1.66250431      -0.30100388       0.00000000
Si       0.03513753      -2.00018394      -1.34502478       0.00000000
Si       3.09107637       0.29216115      -1.52134678       0.00000000
Si      -3.45796694      -1.16458839      -0.01549894       0.00000000
Si      -2.34332465       2.65816052       0.95382330       0.00000000
Si      -1.26624613      -2.02680180       2.88435585       0.00000000
Si      -2.17090966      -2.84263758      -1.13566830       0.00000000
Si      -1.39046553       1.94917248       2.99868209       0.00000000
