10
Lattice="16.28999089631971 0.0 0.0 0.0 16.28999089631971 0.0 0.0 0.0 34.51877397758722" Properties=species:S:1:pos:R:3:initial_magmoms:R:1 pbc="T T T"
Si      -1.35721764      -1.35825694       1.35596724       0.00000000
Si       1.35741312       1.35715248       1.35724443       0.00000000
Si       1.35734796      -1.35730398      -1.35727895       0.00000000
Si      -1.35762489       1.35788553      -1.35790029       0.00000000
Si      -0.00068418      -2.71488230       2.71200351       0.00000000
Si       2.71480995      -2.71443878      -0.00062134       0.00000000
Si      -2.71443528       0.00037467      -2.71493761       0.00000000
Si       0.00029322       2.71518462      -2.71438531       0.00000000
Si       2.71179630       0.00420282       2.71783719       0.00000000
Si      -2.71422351      -2.71544300      -0.00013808       0.00000000
