10
Lattice="16.28999089631971 0.0 0.0 0.0 16.28999089631971 0.0 0.0 0.0 34.51877397758722" Properties=species:S:1:pos:R:3:initial_magmoms:R:1 pbc="T T T"
Si      -1.80709857       1.31323464       0.69558820       0.00000000
Si       0.00798210      -1.98959544       1.30229051       0.00000000
Si       1.65299517       1.77056010      -0.26141082       0.00000000
Si      -0.91732248      -0.75728952      -2.44210107       0.00000000
Si       0.80042544       0.75209301      -2.88621986       0.00000000
Si      -0.23223024      -1.02661209       3.41970781       0.00000000
Si      -1.31400027       3.40441452      -0.34729358       0.00000000
Si       1.01548602       1.03009815       3.52616377       0.00000000
Si      -3.80202084       0.21761811       0.26365454       0.00000000
Si       0.69370965       3.69227511       0.83076380       0.00000000
