10
Lattice="16.28999089631971 0.0 0.0 0.0 16.28999089631971 0.0 0.0 0.0 34.51877397758722" Properties=species:S:1:pos:R:3:initial_magmoms:R:1 pbc="T T T"
Si       0.96901065       1.18654731      -1.73329217       0.00000000
Si       0.56032713       0.21201435       2.26363891       0.00000000
Si       0.46880991      -2.29664565      -0.35195362       0.00000000
Si      -2.30698980       0.56237967       0.16876238       0.00000000
Si      -1.01286333      -1.43156520       2.96057334       0.00000000
Si      -0.03578913       0.13654278      -3.63548479       0.00000000
Si       0.19877058      -3.12962014       1.85286527       0.00000000
Si      -3.05562933      -0.80477487       1.97485468       0.00000000
Si      -3.46101738      -0.35935740      -1.69183510       0.00000000
Si       0.43398189       2.35880829       3.04407430       0.00000000
