10
Lattice="16.28999089631971 0.0 0.0 0.0 16.28999089631971 0.0 0.0 0.0 34.51877397758722" Properties=species:S:1:pos:R:3:initial_magmoms:R:1 pbc="T T T"
Si      -1.35381303       1.35426915       1.35979882       0.00000000
Si       1.36005210      -1.36174626       1.35800385       0.00000000
Si       1.34762283       1.36712196      -1.36898427       0.00000000
Si      -1.35930276      -1.34806266      -1.37796606       0.00000000
Si       0.12849552      -2.59106296      -2.72244545       0.00000000
Si       2.71093293      -0.04025259      -2.65923118       0.00000000
Si      -2.71171485       2.71363707      -0.00279602       0.00000000
Si       0.00335574       2.71163340       2.71635288       0.00000000
Si      -2.71173114      -0.00302994       2.71628384       0.00000000
Si       2.71959921       2.71160082       0.00231276       0.00000000
