10
Lattice="16.28999089631971 0.0 0.0 0.0 16.28999089631971 0.0 0.0 0.0 34.51877397758722" Properties=species:S:1:pos:R:3:initial_magmoms:R:1 pbc="T T T"
Si      -1.33437906       1.37611404       1.35072038       0.00000000
Si      -1.37536470      -1.33301070      -1.37229463       0.00000000
Si       1.34229600       1.37735208      -1.37578102       0.00000000
Si       1.30750056      -1.41235929       1.59594189       0.00000000
Si       2.69895978      -2.68229511       0.00963074       0.00000000
Si       2.70500337       2.72108160      -0.00327929       0.00000000
Si      -0.01751175      -2.69363295      -2.73381939       0.00000000
Si      -2.73074157      -2.69891091       0.00755962       0.00000000
Si       2.69821044       0.02274084      -2.73364680       0.00000000
Si      -2.73173526       0.02340873      -2.73437169       0.00000000
