10
Lattice="16.28999089631971 0.0 0.0 0.0 16.28999089631971 0.0 0.0 0.0 34.51877397758722" Properties=species:S:1:pos:R:3:initial_magmoms:R:1 pbc="T T T"
Si      -1.73190393       1.29412647       0.76773248       0.00000000
Si       2.00770992       0.28786059       1.17805738       0.00000000
Si      -0.49309830      -2.09117988       1.04288178       0.00000000
Si      -1.48080987      -0.85084299      -1.84913724       0.00000000
Si      -0.66080385       2.23907679      -2.03515901       0.00000000
Si       2.96699544      -1.63385442       0.08588276       0.00000000
Si      -0.90779283      -1.28399409       3.18466935       0.00000000
Si       1.21536432      -0.29346435       3.36413255       0.00000000
Si       1.31400027      -3.40441452       0.34729358       0.00000000
Si      -2.75107149      -0.03026682       2.43440338       0.00000000
