10
Lattice="16.28999089631971 0.0 0.0 0.0 16.28999089631971 0.0 0.0 0.0 34.51877397758722" Properties=species:S:1:pos:R:3:initial_magmoms:R:1 pbc="T T T"
Si      -0.96901065      -1.18654731       1.73329217       0.00000000
Si       2.34476631      -0.29030409      -0.23842131       0.00000000
Si      -0.32612580       2.36147985       0.18367450       0.00000000
Si      -1.00479978      -1.05000453      -1.90219262       0.00000000
Si       2.14959582      -0.20584044      -2.56447019       0.00000000
Si      -1.08768330       0.88448184      -3.25325819       0.00000000
Si       0.90187956      -2.26255068      -2.67092615       0.00000000
Si       1.03547385       1.87501158      -3.07379498       0.00000000
Si      -0.50020074      -3.48319296       1.38133855       0.00000000
Si      -3.27600045      -0.62416764       1.90205455       0.00000000
