10
Lattice="16.28999089631971 0.0 0.0 0.0 16.28999089631971 0.0 0.0 0.0 34.51877397758722" Properties=species:S:1:pos:R:3:initial_magmoms:R:1 pbc="T T T"
Si      -0.12634524       2.14679394       0.78043540       0.00000000
Si       2.02380444      -0.68854572       0.90991539       0.00000000
Si      -0.56032713      -0.21201435      -2.26363891       0.00000000
Si      -1.57319046      -1.64357955       0.69693444       0.00000000
Si      -0.36155655      -3.34163449      -0.41077364       0.00000000
Si       1.62829953      -2.99582222       0.84129203       0.00000000
Si      -2.86731693       0.35036532      -2.09487653       0.00000000
Si      -0.09151722      -2.50866000      -2.61559252       0.00000000
Si       1.87543512       3.14085861       0.19354687       0.00000000
Si       1.97846937       0.09769113       3.19954695       0.00000000
