10
Lattice="16.28999089631971 0.0 0.0 0.0 16.28999089631971 0.0 0.0 0.0 34.51877397758722" Properties=species:S:1:pos:R:3:initial_magmoms:R:1 pbc="T T T"
Si      -1.56416091       0.92476701       1.52103611       0.00000000
Si       1.00888857      -1.88429199       1.04246756       0.00000000
Si      -1.39935987      -0.48839049      -1.86056296       0.00000000
Si       1.86106734       1.42066719      -0.42261359       0.00000000
Si      -2.60104873       1.58566860      -2.06802090       0.00000000
Si      -2.97261712       2.26336518       0.18098203       0.00000000
Si      -0.61973676      -3.54679631       1.34347143       0.00000000
Si       2.36566638      -1.01252124       2.86091759       0.00000000
Si      -2.96306140      -0.88863579       2.29729473       0.00000000
Si       0.01040931      -0.85579515      -3.77193758       0.00000000
