10
Lattice="16.28999089631971 0.0 0.0 0.0 16.28999089631971 0.0 0.0 0.0 34.51877397758722" Properties=species:S:1:pos:R:3:initial_magmoms:R:1 pbc="T T T"
Si      -0.98196120      -1.66061889      -1.37112586       0.00000000
Si       1.21166649      -1.51249392       1.44074885       0.00000000
Si      -1.52171406       1.19285154       1.45009999       0.00000000
Si       1.31970177       1.50926265      -1.43146471       0.00000000
Si      -1.24458858       0.39902355      -3.13838452       0.00000000
Si       2.67530670       2.67186855       0.10234132       0.00000000
Si      -2.71745545      -2.64482811       0.00380397       0.00000000
Si      -0.16518060       2.54270840       2.82399283       0.00000000
Si       2.54870082      -0.17200611       2.82889450       0.00000000
Si       2.58945840      -2.80367190      -0.16753696       0.00000000
