10
Lattice="16.28999089631971 0.0 0.0 0.0 16.28999089631971 0.0 0.0 0.0 34.51877397758722" Properties=species:S:1:pos:R:3:initial_magmoms:R:1 pbc="T T T"
Si       1.33703433       1.34048781       1.38814566       0.00000000
Si      -1.37671677      -1.37352393       1.38048248       0.00000000
Si      -1.21166649       1.51249392      -1.44074885       0.00000000
Si       1.37779191      -1.29117798      -1.60828581       0.00000000
Si      -2.19362769      -0.14812497      -2.81187471       0.00000000
Si      -0.59381937      -2.07313056      -2.94791327       0.00000000
Si       2.69281845       2.68246047       0.01275815       0.00000000
Si       2.69752626      -2.73012255      -0.01560595       0.00000000
Si      -2.73338055       2.70534546       0.00935114       0.00000000
Si       2.69687466      -0.01252701       2.74304281       0.00000000
