10
Lattice="16.28999089631971 0.0 0.0 0.0 16.28999089631971 0.0 0.0 0.0 34.51877397758722" Properties=species:S:1:pos:R:3:initial_magmoms:R:1 pbc="T T T"
Si       1.45552779       1.05039893      -1.46290646       0.00000000
Si       1.77730416      -1.06432344       1.18126762       0.00000000
Si      -1.19079900      -1.68375069      -1.40688246       0.00000000
Si      -1.09779939       1.73938660       1.59376720       0.00000000
Si       3.33371592       0.72453033       0.94574590       0.00000000
Si       2.37487023       2.69391707      -0.02385249       0.00000000
Si       0.04232142       2.25481849      -2.81683709       0.00000000
Si       0.68657463      -0.98417664       3.40997351       0.00000000
Si      -1.26035730       0.40376394       3.56396185       0.00000000
Si      -2.91662676       2.45725432       0.11967666       0.00000000
