10
Lattice="16.28999089631971 0.0 0.0 0.0 16.28999089631971 0.0 0.0 0.0 34.51877397758722" Properties=species:S:1:pos:R:3:initial_magmoms:R:1 pbc="T T T"
Si       0.55672704       2.23264780       0.47970767       0.00000000
Si      -0.80736498      -0.95677686       2.01872807       0.00000000
Si      -2.18416320       0.43171758      -0.91136518       0.00000000
Si       1.90879704      -0.92492991      -1.44312719       0.00000000
Si       0.82676637       3.06562229      -1.72511121       0.00000000
Si      -3.42488290      -1.49545458      -0.35820152       0.00000000
Si       0.90295470      -2.28307608       2.89774914       0.00000000
Si      -2.15863677       0.53134722      -3.24255736       0.00000000
Si       3.76849602       0.78540606       0.96466220       0.00000000
Si      -3.13071971      -1.51360164       1.94924174       0.00000000
