10
Lattice="16.28999089631971 0.0 0.0 0.0 16.28999089631971 0.0 0.0 0.0 34.51877397758722" Properties=species:S:1:pos:R:3:initial_magmoms:R:1 pbc="T T T"
Si       1.37282346      -1.32049998       1.31125159       0.00000000
Si      -1.36331010       1.40737455       1.29024691       0.00000000
Si       1.35470898       1.23137739      -1.50675365       0.00000000
Si      -0.95889456      -1.60247988      -1.47509992       0.00000000
Si      -1.90747755       0.23964219      -2.79185380       0.00000000
Si      -2.58243741      -2.55081038      -0.06321427       0.00000000
Si      -0.39530943       2.26758429      -2.81104625       0.00000000
Si       0.01267362      -2.68020022       2.65788495       0.00000000
Si      -2.71093293       0.04025259       2.65923118       0.00000000
Si       2.63041146      -2.75060722      -0.05948278       0.00000000
