10
Lattice="16.28999089631971 0.0 0.0 0.0 16.28999089631971 0.0 0.0 0.0 34.51877397758722" Properties=species:S:1:pos:R:3:initial_magmoms:R:1 pbc="T T T"
Si      -1.33757190      -1.35124387      -1.36401012       0.00000000
Si       1.26762264      -1.36277809       1.43190858       0.00000000
Si       1.37645613       1.36564120      -1.36149024       0.00000000
Si      -1.38728898       1.32851629       1.42476319       0.00000000
Si       2.06236287       0.44944273       2.73941143       0.00000000
Si       0.38045295       2.28509767       2.70616984       0.00000000
Si      -2.70342324      -2.70158803       0.00680020       0.00000000
Si      -2.69703756       0.00331339      -2.72066773       0.00000000
Si      -2.69495244       2.73124819       0.02198847       0.00000000
Si       0.01747917      -2.71014028      -2.72263530       0.00000000
