10
Lattice="16.28999089631971 0.0 0.0 0.0 16.28999089631971 0.0 0.0 0.0 34.51877397758722" Properties=species:S:1:pos:R:3:initial_magmoms:R:1 pbc="T T T"
Si       0.44926191       1.47709575      -1.77599191       0.00000000
Si      -1.29826413      -1.64562639      -1.16966931       0.00000000
Si       2.24617923      -0.78794404       0.35675173       0.00000000
Si      -1.34762283       1.15738821       1.69204221       0.00000000
Si      -3.32332290      -0.84409730      -0.29841497       0.00000000
Si       2.70946683       1.89855063      -1.52562711       0.00000000
Si      -3.03482700      -0.45471906       1.98866220       0.00000000
Si       3.32389305      -0.35167178      -1.74433818       0.00000000
Si       0.32522985       0.18893142      -3.81684653       0.00000000
Si       3.34192608       0.65756214       1.93225849       0.00000000
