10
Lattice="16.28999089631971 0.0 0.0 0.0 16.28999089631971 0.0 0.0 0.0 34.51877397758722" Properties=species:S:1:pos:R:3:initial_magmoms:R:1 pbc="T T T"
Si      -2.04276600       0.62679033      -0.98571866       0.00000000
Si       1.21163391      -1.69805494      -1.10770808       0.00000000
Si       1.57319046       1.64357955      -0.69693444       0.00000000
Si      -0.08977419      -1.10829992       2.24938264       0.00000000
Si       1.01286333       1.43156520      -2.96057334       0.00000000
Si       3.20148999      -1.35224267       0.14435759       0.00000000
Si      -1.29412647       1.99394487      -2.79181096       0.00000000
Si      -2.89419543      -1.45018304      -1.83129102       0.00000000
Si       3.59699490       0.95503383       0.21298095       0.00000000
Si       1.48167324      -0.86508045      -3.31252696       0.00000000
