10
Lattice="16.28999089631971 0.0 0.0 0.0 16.28999089631971 0.0 0.0 0.0 34.51877397758722" Properties=species:S:1:pos:R:3:initial_magmoms:R:1 pbc="T T T"
Si      -2.16039609      -0.67449431      -0.63925353       0.00000000
Si       1.04708862      -0.55261253       2.04706800       0.00000000
Si       1.59026238      -0.16290686      -1.74647835       0.00000000
Si       0.25036101       2.14993824       1.00670609       0.00000000
Si       0.93180429      -2.77857587       1.17691826       0.00000000
Si       0.11302002      -1.60789502      -2.92063510       0.00000000
Si       0.39299625      -3.20770334      -1.16190258       0.00000000
Si      -3.38230899       1.11855969       0.12785761       0.00000000
Si       2.09285775       2.16686355      -2.06512133       0.00000000
Si      -2.17756575      -0.88491224      -2.96647606       0.00000000
