10
Lattice="16.28999089631971 0.0 0.0 0.0 16.28999089631971 0.0 0.0 0.0 34.51877397758722" Properties=species:S:1:pos:R:3:initial_magmoms:R:1 pbc="T T T"
Si       1.36331010      -1.40737455      -1.29024691       0.00000000
Si      -1.34762283      -1.36712196       1.36898427       0.00000000
Si       1.37197638       1.34447886       1.37129703       0.00000000
Si      -1.32879159       1.32574536      -1.55919663       0.00000000
Si      -2.69915526       2.70770751      -0.02769788       0.00000000
Si       2.74475097       2.67159258       0.02271682       0.00000000
Si      -2.70692559      -2.71518462      -0.00898179       0.00000000
Si      -2.70143586      -0.01285281       2.72878310       0.00000000
Si       0.01397682       2.70225036       2.72798917       0.00000000
Si       0.01242927      -2.72886822       2.72698812       0.00000000
