10
Lattice="16.28999089631971 0.0 0.0 0.0 16.28999089631971 0.0 0.0 0.0 34.51877397758722" Properties=species:S:1:pos:R:3:initial_magmoms:R:1 pbc="T T T"
Si       1.35418770       1.34610786      -1.38185633       0.00000000
Si      -1.36208835      -1.36428750      -1.38285738       0.00000000
Si       1.30766346      -1.40273190       1.40277472       0.00000000
Si      -1.39145922       1.26993582       1.58631114       0.00000000
Si      -0.39436461      -2.28613860       2.75304636       0.00000000
Si      -2.32730343      -0.60667218       2.77903901       0.00000000
Si      -2.69895978       2.68229511      -0.00963074       0.00000000
Si       2.69972541       2.72318301       0.00372803       0.00000000
Si       2.69495244      -2.73124819      -0.02198847       0.00000000
Si      -0.00074934       2.70503595      -2.74327754       0.00000000
