10
Lattice="16.28999089631971 0.0 0.0 0.0 16.28999089631971 0.0 0.0 0.0 34.51877397758722" Properties=species:S:1:pos:R:3:initial_magmoms:R:1 pbc="T T T"
Si      -1.27568619      -1.20891348      -1.63025357       0.00000000
Si       1.31299029       1.43055522      -1.50312085       0.00000000
Si      -0.95268807       2.19361140       1.02103139       0.00000000
Si      -0.64220067      -1.31764923       2.19052810       0.00000000
Si       2.14119018      -1.98301428      -0.14656680       0.00000000
Si      -3.01136940      -2.28648069      -0.32506348       0.00000000
Si       2.60649774       2.83229343      -0.11460239       0.00000000
Si      -1.52202357      -3.37067793       1.14329695       0.00000000
Si       0.04528620      -2.64862368      -2.95004511       0.00000000
Si      -2.67403608       0.09503586      -2.96109112       0.00000000
