10
Lattice="16.28999089631971 0.0 0.0 0.0 16.28999089631971 0.0 0.0 0.0 34.51877397758722" Properties=species:S:1:pos:R:3:initial_magmoms:R:1 pbc="T T T"
Si      -1.03565304      -1.87253550      -0.96549065       0.00000000
Si       0.46030653       1.87971939      -1.39076218       0.00000000
Si      -2.03341554       0.79135191       1.00784521       0.00000000
Si       1.79836713      -0.29463723       1.79193960       0.00000000
Si       2.95476165       1.80341703       1.20339417       0.00000000
Si       2.84250726       1.95273117      -1.25503429       0.00000000
Si      -2.61374679      -0.93895560      -2.54441477       0.00000000
Si      -0.81710640       3.66472872      -0.49789907       0.00000000
Si      -2.17118007      -3.01105989       0.78868539       0.00000000
Si      -1.44967968       2.28468879       2.92584744       0.00000000
