10
Lattice="16.28999089631971 0.0 0.0 0.0 16.28999089631971 0.0 0.0 0.0 34.51877397758722" Properties=species:S:1:pos:R:3:initial_magmoms:R:1 pbc="T T T"
Si       1.35641504       1.35729909       1.35776221       0.00000000
Si      -1.35799973      -1.35769005       1.35796933       0.00000000
Si      -1.36015001       1.35654975      -1.36017853       0.00000000
Si       1.35953295      -1.35904212      -1.35848711       0.00000000
Si       2.71390472       0.00001629       2.71517924       0.00000000
Si       2.71424681       2.71490769       0.00100105       0.00000000
Si       2.71458890      -2.71484253       0.00055230       0.00000000
Si      -0.00121184      -2.71438641       2.71552443       0.00000000
Si      -0.00113549       2.71428867       2.71562799       0.00000000
Si      -2.71564091      -0.00026064       2.71493761       0.00000000
