10
Lattice="16.28999089631971 0.0 0.0 0.0 16.28999089631971 0.0 0.0 0.0 34.51877397758722" Properties=species:S:1:pos:R:3:initial_magmoms:R:1 pbc="T T T"
Si      -1.35669636      -1.35480672      -1.35772770       0.00000000
Si       1.35742941       1.35769005      -1.35710636       0.00000000
Si      -1.35772263       1.35779147       1.35683021       0.00000000
Si       1.35782037      -1.35786924       1.35689924       0.00000000
Si      -2.71461447       0.00112401       2.71245226       0.00000000
Si       2.71378368      -0.00066789       2.71352234       0.00000000
Si      -0.00073305       2.71278577       2.71548991       0.00000000
Si      -2.71653669      -0.00179190      -2.71262485       0.00000000
Si       2.71467963       2.71496212       0.00006904       0.00000000
Si      -2.71508688      -2.71498914      -0.00044874       0.00000000
