10
Lattice="16.28999089631971 0.0 0.0 0.0 16.28999089631971 0.0 0.0 0.0 34.51877397758722" Properties=species:S:1:pos:R:3:initial_magmoms:R:1 pbc="T T T"
Si      -1.29350745      -1.40173821      -1.38851846       0.00000000
Si       1.39531995       1.31167080      -1.41261258       0.00000000
Si      -0.06320520       1.00545138       2.19432517       0.00000000
Si      -2.00277405       1.15017174       0.90011205       0.00000000
Si       2.14563735       1.81252544       1.95151998       0.00000000
Si      -3.55918581      -0.63868203       1.13563378       0.00000000
Si       2.19006018       3.12389162      -0.10510973       0.00000000
Si      -2.57572593      -0.02713914      -2.83772096       0.00000000
Si      -2.60649774      -2.83229343       0.11460239       0.00000000
Si       0.12769731       2.67444889      -2.84452116       0.00000000
