10
Lattice="16.28999089631971 0.0 0.0 0.0 16.28999089631971 0.0 0.0 0.0 34.51877397758722" Properties=species:S:1:pos:R:3:initial_magmoms:R:1 pbc="T T T"
Si      -1.93956885       0.14472036      -1.29421312       0.00000000
Si       2.20884255       0.80707406      -0.24280519       0.00000000
Si       0.06594192      -1.15670403       2.08062026       0.00000000
Si       0.06320520      -1.00545138      -2.19432517       0.00000000
Si       2.50778034       1.31463136       2.08538386       0.00000000
Si       3.25754388      -1.33418358       0.54681220       0.00000000
Si       2.25326538       2.11844024      -2.29943489       0.00000000
Si       1.45852515       0.30621942      -3.60693775       0.00000000
Si       1.93717422      -2.68209963       2.09128657       0.00000000
Si       0.91580751       0.55381506       3.79986328       0.00000000
