10
Lattice="16.28999089631971 0.0 0.0 0.0 16.28999089631971 0.0 0.0 0.0 34.51877397758722" Properties=species:S:1:pos:R:3:initial_magmoms:R:1 pbc="T T T"
Si      -1.63157382      -1.51964523       0.82275544       0.00000000
Si      -0.06594192       1.15670403      -2.08062026       0.00000000
Si       1.87123230      -1.52539560       0.01066631       0.00000000
Si       0.84986559       1.71051909       1.71924302       0.00000000
Si       1.05692778      -0.23438052       3.24283351       0.00000000
Si       2.44183842       2.47133539       0.00476359       0.00000000
Si      -0.72203796      -1.76324589       2.97710784       0.00000000
Si       3.19160196      -0.17747955      -1.53380806       0.00000000
Si      -3.50249661      -0.13952385       1.12648630       0.00000000
Si       2.14290063       1.96377809      -2.32342546       0.00000000
