10
Lattice="16.28999089631971 0.0 0.0 0.0 16.28999089631971 0.0 0.0 0.0 34.51877397758722" Properties=species:S:1:pos:R:3:initial_magmoms:R:1 pbc="T T T"
Si      -2.07125721      -0.91479753       0.56824837       0.00000000
Si       1.27741293      -1.78500933      -0.89286311       0.00000000
Si      -0.27997623       1.59980832      -1.75873252       0.00000000
Si       0.53880804       0.42912747       2.33882084       0.00000000
Si       1.19726613       3.04479648      -0.58457576       0.00000000
Si      -0.39299625       3.20770334       1.16190258       0.00000000
Si      -1.21630914      -2.87337681       1.50574428       0.00000000
Si       0.49604679      -1.74107520      -3.13220078       0.00000000
Si      -2.55339234       2.53320903       0.52264905       0.00000000
Si       2.86168059       0.28729044       2.25300712       0.00000000
