10
Lattice="16.28999089631971 0.0 0.0 0.0 16.28999089631971 0.0 0.0 0.0 34.51877397758722" Properties=species:S:1:pos:R:3:initial_magmoms:R:1 pbc="T T T"
Si      -0.40930254      -0.72277101      -2.30095372       0.00000000
Si      -0.17734923       2.30715270      -0.85789557       0.00000000
Si      -2.25179928      -0.73969632       0.77087369       0.00000000
Si      -0.99598689       0.78011181       2.15814947       0.00000000
Si       2.20108851      -1.23523812       2.24344541       0.00000000
Si      -3.29193207       1.15364151      -0.56158625       0.00000000
Si      -2.30021316       0.70897338      -2.69004956       0.00000000
Si       0.45023931      -0.35958546       3.60524633       0.00000000
Si       2.72565909      -2.52611636      -0.42899956       0.00000000
Si      -0.91189791      -3.05254142      -1.98231074       0.00000000
