10
Lattice="16.28999089631971 0.0 0.0 0.0 16.28999089631971 0.0 0.0 0.0 34.51877397758722" Properties=species:S:1:pos:R:3:initial_magmoms:R:1 pbc="T T T"
Si      -1.34770428      -1.35907470      -1.35101724       0.00000000
Si      -1.35607734       1.35435060       1.35731347       0.00000000
Si       1.35840681      -1.35848826       1.35638146       0.00000000
Si       1.34744364       1.37437101      -1.36573260       0.00000000
Si       2.61977409      -0.04940757      -2.68487864       0.00000000
Si      -2.72052774      -0.03857472      -2.66226883       0.00000000
Si      -2.71186146       2.71327869      -0.00072489       0.00000000
Si      -2.70785412      -2.71877494      -0.00438389       0.00000000
Si       0.00182448       2.71357191       2.71334974       0.00000000
Si      -2.71339272      -0.00185706       2.71376397       0.00000000
