10
Lattice="16.28999089631971 0.0 0.0 0.0 16.28999089631971 0.0 0.0 0.0 34.51877397758722" Properties=species:S:1:pos:R:3:initial_magmoms:R:1 pbc="T T T"
Si      -1.35581344       1.35571896      -1.35776221       0.00000000
Si       1.36089918      -1.35602847      -1.35865970       0.00000000
Si      -1.35905515      -1.33968960       1.37809378       0.00000000
Si       1.35917244       1.35495333       1.37163877       0.00000000
Si      -2.71245010      -0.00071676      -2.71521376       0.00000000
Si      -2.71252619       2.71642266       0.00255439       0.00000000
Si      -2.71583112      -2.71321353       0.00034519       0.00000000
Si       2.71726974      -2.71244790       0.00341736       0.00000000
Si       0.00262269       2.71507059      -2.71469598       0.00000000
Si       0.00259011      -2.71498914      -2.71566250       0.00000000
