10
Lattice="16.28999089631971 0.0 0.0 0.0 16.28999089631971 0.0 0.0 0.0 34.51877397758722" Properties=species:S:1:pos:R:3:initial_magmoms:R:1 pbc="T T T"
Si      -1.16960245       1.50671097      -1.39231553       0.00000000
Si      -1.56867650      -1.02921849       1.45462195       0.00000000
Si       1.55134557      -1.23194754      -1.38713771       0.00000000
Si       1.60161651       1.29085218       1.47005185       0.00000000
Si      -3.36667778       0.88920594       1.36331974       0.00000000
Si      -2.52637842       0.13318704      -2.77006412       0.00000000
Si      -2.67388037      -2.64147237       0.04725623       0.00000000
Si      -2.43240016       2.88952020       0.18329479       0.00000000
Si       0.19635966      -2.58387093      -2.76640513       0.00000000
Si       2.90872611      -2.66942601       0.04190582       0.00000000
