10
Lattice="16.28999089631971 0.0 0.0 0.0 16.28999089631971 0.0 0.0 0.0 34.51877397758722" Properties=species:S:1:pos:R:3:initial_magmoms:R:1 pbc="T T T"
Si       1.56867650       1.02921849      -1.45462195       0.00000000
Si      -1.10520387      -1.61225388      -1.40736572       0.00000000
Si       1.33528967      -1.60142103       1.52055284       0.00000000
Si      -1.79800128       1.91842443      -0.09130221       0.00000000
Si      -1.67857929       0.43295562       2.98577206       0.00000000
Si      -2.31706584      -0.19903122      -2.86543955       0.00000000
Si       0.39907405       2.53592946      -2.84693747       0.00000000
Si      -2.98295217      -2.46791871      -0.12226557       0.00000000
Si       3.17029301       2.32007067       0.01542990       0.00000000
Si       2.86386182      -2.70891460       0.05688697       0.00000000
