10
Lattice="16.28999089631971 0.0 0.0 0.0 16.28999089631971 0.0 0.0 0.0 34.51877397758722" Properties=species:S:1:pos:R:3:initial_magmoms:R:1 pbc="T T T"
Si       0.46674108       2.35936215      -0.09982835       0.00000000
Si      -0.54046962       0.02340873       2.36025701       0.00000000
Si      -1.60088346      -1.44223515      -1.14885448       0.00000000
Si       2.34422874      -0.95149890      -0.34549860       0.00000000
Si       1.45445265       1.11902526       2.79219067       0.00000000
Si       0.23411988       2.47925655      -2.65397742       0.00000000
Si      -0.07231131      -2.54972872      -2.61252035       0.00000000
Si      -0.72801639      -2.28473766       2.93571981       0.00000000
Si       1.74651606      -3.26759644      -1.13842980       0.00000000
Si       3.26155122      -0.19420938       2.09660247       0.00000000
