10
Lattice="16.28999089631971 0.0 0.0 0.0 16.28999089631971 0.0 0.0 0.0 34.51877397758722" Properties=species:S:1:pos:R:3:initial_magmoms:R:1 pbc="T T T"
Si      -1.35596331      -1.35720135      -1.35662309       0.00000000
Si      -1.35505107       1.35889641       1.35862518       0.00000000
Si       1.35868374       1.35784873      -1.35645050       0.00000000
Si       1.35948195      -1.35762489       1.36004045       0.00000000
Si      -0.00954594      -2.69348634       2.72608718       0.00000000
Si      -2.71378368       0.00066789      -2.71352234       0.00000000
Si      -2.71451673       2.71345366       0.00196757       0.00000000
Si      -2.71410948      -2.71407690       0.00207113       0.00000000
Si       0.00175932      -2.71528236      -2.71366041       0.00000000
Si       0.00089595       2.71563001      -2.71345330       0.00000000
