10
Lattice="16.28999089631971 0.0 0.0 0.0 16.28999089631971 0.0 0.0 0.0 34.51877397758722" Properties=species:S:1:pos:R:3:initial_magmoms:R:1 pbc="T T T"
Si      -2.10602007       0.57876741      -0.84988721       0.00000000
Si      -0.05727564      -0.61605522       2.29253114       0.00000000
Si       1.31050185       1.93696245      -0.41757384       0.00000000
Si       1.28705728      -1.67804919      -1.12016936       0.00000000
Si       3.45796694       1.16458839       0.01549894       0.00000000
Si       2.19172080      -0.86221341       2.89985478       0.00000000
Si      -2.29330620       2.92828455      -0.69793548       0.00000000
Si       3.49310447      -0.83559555      -1.32952584       0.00000000
Si       1.03356256       2.59379221      -2.64714270       0.00000000
Si       1.53193182      -3.57848946       0.22540772       0.00000000
