10
Lattice="16.28999089631971 0.0 0.0 0.0 16.28999089631971 0.0 0.0 0.0 34.51877397758722" Properties=species:S:1:pos:R:3:initial_magmoms:R:1 pbc="T T T"
Si      -1.35554418       1.35241209      -1.35966075       0.00000000
Si      -1.35665190      -1.35728280       1.35638146       0.00000000
Si       1.35833140       1.35713619       1.35638146       0.00000000
Si       1.35621207      -1.35399222      -1.36176639       0.00000000
Si      -2.69652069      -0.00298107      -2.72415758       0.00000000
Si       2.69516699       0.01855431      -2.73055046       0.00000000
Si      -2.71386954      -0.00029322       2.71383301       0.00000000
Si       0.00113204       2.71459818       2.71410916       0.00000000
Si      -2.71399986       2.71472850      -0.00124268       0.00000000
Si      -2.71448856      -2.71526607      -0.00100105       0.00000000
