10
Lattice="16.28999089631971 0.0 0.0 0.0 16.28999089631971 0.0 0.0 0.0 34.51877397758722" Properties=species:S:1:pos:R:3:initial_magmoms:R:1 pbc="T T T"
Si       0.77499675       0.49679613      -2.10612965       0.00000000
Si      -1.75168718      -1.51583337      -0.27653005       0.00000000
Si      -1.05144131       1.87069473       0.99952618       0.00000000
Si       1.80283059      -0.49946769       1.50567524       0.00000000
Si      -2.79877580      -1.20179475       1.82614772       0.00000000
Si       2.32705908       1.78421112       2.08155227       0.00000000
Si       2.95054254       1.39769829      -1.60388121       0.00000000
Si       1.42923573      -1.52054118      -3.07779916       0.00000000
Si       0.20232180       2.39809977       2.91704514       0.00000000
Si      -3.10325219       1.11772206       1.85134644       0.00000000
