10
Lattice="16.28999089631971 0.0 0.0 0.0 16.28999089631971 0.0 0.0 0.0 34.51877397758722" Properties=species:S:1:pos:R:3:initial_magmoms:R:1 pbc="T T T"
Si      -1.35833140      -1.35713619      -1.35638146       0.00000000
Si      -1.35719936       1.35746199       1.35772770       0.00000000
Si       1.35729583      -1.35703845       1.35834903       0.00000000
Si       1.35714922       1.35879777      -1.35734799       0.00000000
Si       2.71485556      -2.71432125      -0.00027615       0.00000000
Si       0.00007493       2.71505430       2.71414368       0.00000000
Si      -0.00211933      -2.71112841      -2.71814786       0.00000000
Si      -2.71498329      -2.71441899       0.00000000       0.00000000
Si      -0.00077703       2.71383255      -2.71580058       0.00000000
Si      -2.71455975       2.71515204      -0.00017259       0.00000000
