10
Lattice="16.28999089631971 0.0 0.0 0.0 16.28999089631971 0.0 0.0 0.0 34.51877397758722" Properties=species:S:1:pos:R:3:initial_magmoms:R:1 pbc="T T T"
Si       1.35358497      -1.35820807      -1.36338878       0.00000000
Si      -1.36073139       1.35855342      -1.36262936       0.00000000
Si       1.35498591       1.35192339       1.37926742       0.00000000
Si      -1.37429608      -1.36488534       1.38334064       0.00000000
Si      -0.19635966       2.58387093       2.76640513       0.00000000
Si       2.71011843      -2.71483343      -0.00735250       0.00000000
Si       2.71036278       2.71782360      -0.00058682       0.00000000
Si       2.71080261       0.00004887      -2.71935601       0.00000000
Si      -2.71651130      -2.71655596      -0.00017259       0.00000000
Si      -0.00342090      -2.71539413      -2.71949409       0.00000000
