10
Lattice="16.28999089631971 0.0 0.0 0.0 16.28999089631971 0.0 0.0 0.0 34.51877397758722" Properties=species:S:1:pos:R:3:initial_magmoms:R:1 pbc="T T T"
Si      -2.05170758      -1.10029176       0.68695850       0.00000000
Si       0.89461422       0.52121484       2.27278639       0.00000000
Si       1.53171612      -1.91855475      -0.48084679       0.00000000
Si       0.32187411       1.68009295      -1.82625128       0.00000000
Si      -2.50415486      -1.27809711      -1.81068330       0.00000000
Si       0.63501678      -1.82609271       2.88086945       0.00000000
Si       1.36980981       3.22195579      -0.37273393       0.00000000
Si       1.63087335       0.31359879      -3.28860543       0.00000000
Si       3.09563757      -0.91904922      -1.89929304       0.00000000
Si      -1.24870018      -3.04241814       1.81413518       0.00000000
