10
Lattice="10.86 0.0 0.0 0.0 10.86 0.0 0.0 0.0 10.86" Properties=species:S:1:pos:R:3:initial_magmoms:R:1 pbc="T T T"
Si       1.34152494      -1.34582550       1.36310376       0.00000000
Si      -1.37347506      -1.34582550      -1.35189624       0.00000000
Si      -1.37347506       1.36917450       1.36310376       0.00000000
Si       2.69902494      -2.70332550       0.00560376       0.00000000
Si      -0.01597506      -2.70332550      -2.70939624       0.00000000
Si       2.69902494       0.01167450       2.72060376       0.00000000
Si      -0.01597506      -2.70332550       2.72060376       0.00000000
Si      -2.73097506      -2.70332550       0.00560376       0.00000000
Si      -2.73097506       0.01167450      -2.70939624       0.00000000
Si      -0.01597506       2.72667450       2.72060376       0.00000000
