10
Lattice="10.86 0.0 0.0 0.0 10.86 0.0 0.0 0.0 10.86" Properties=species:S:1:pos:R:3:initial_magmoms:R:1 pbc="T T T"
Si       1.67028972       0.55303464       1.39120944       0.00000000
Si      -1.48078272       1.04513382      -1.55580360       0.00000000
Si      -1.48078272      -1.66986618       1.15919640       0.00000000
Si       1.23421728      -1.66986618      -1.55580360       0.00000000
Si       0.10803528       2.29033056       2.29753074       0.00000000
Si       2.53760190       2.52241962       0.05333346       0.00000000
Si      -2.83828272       2.40263382      -0.19830360       0.00000000
Si       1.39064472      -1.06497504       3.34157856       0.00000000
Si      -0.12328272       2.40263382      -2.91330360       0.00000000
Si      -2.83828272      -0.31236618       2.51669640       0.00000000
