10
Lattice="10.86 0.0 0.0 0.0 10.86 0.0 0.0 0.0 10.86" Properties=species:S:1:pos:R:3:initial_magmoms:R:1 pbc="T T T"
Si       1.41161538       1.23771420       1.10586294       0.00000000
Si      -1.30338462       1.23771420      -1.60913706       0.00000000
Si      -0.86731218      -1.96938498       1.33787598       0.00000000
Si       1.41161538      -1.47728580      -1.60913706       0.00000000
Si      -2.42956662      -0.23208906       2.24419728       0.00000000
Si       2.59889574      -0.27696258       2.39688888       0.00000000
Si      -2.53760190      -2.52241962      -0.05333346       0.00000000
Si       0.05411538       2.59521420       2.46336294       0.00000000
Si      -2.66088462       2.59521420      -0.25163706       0.00000000
Si       2.76911538       2.59521420      -0.25163706       0.00000000
