10
Lattice="10.86 0.0 0.0 0.0 10.86 0.0 0.0 0.0 10.86" Properties=species:S:1:pos:R:3:initial_magmoms:R:1 pbc="T T T"
Si      -1.17941772      -1.27661472       1.34514132       0.00000000
Si      -1.17941772       1.43838528      -1.36985868       0.00000000
Si       1.53558228       1.43838528       1.34514132       0.00000000
Si      -2.29545648      -2.44435794      -0.19094052       0.00000000
Si      -2.53691772       0.08088528       2.70264132       0.00000000
Si      -2.30559972      -0.03141798      -2.94652434       0.00000000
Si       2.68446168      -2.62828290      -0.23517330       0.00000000
Si      -2.53691772       2.79588528      -0.01235868       0.00000000
Si       0.17808228      -2.63411472       2.70264132       0.00000000
Si       0.17808228       2.79588528       2.70264132       0.00000000
