10
Lattice="16.28999089631971 0.0 0.0 0.0 16.28999089631971 0.0 0.0 0.0 34.385447050020396" Properties=species:S:1:pos:R:3:initial_magmoms:R:1 pbc="T T T"
Si       1.33766964       1.35795001       1.38436231       0.00000000
Si      -0.74661957       1.91698371      -1.16226315       0.00000000
Si      -1.38915744      -1.34428148       1.37449368       0.00000000
Si       1.32225930      -1.36879793      -1.64998316       0.00000000
Si       2.67646329      -2.70672821      -0.01643281       0.00000000
Si       2.68504812       0.01227062       2.74169421       0.00000000
Si       2.70697446       2.72011329      -0.00586616       0.00000000
Si      -0.02863782      -2.70469196       2.73732725       0.00000000
Si      -2.72460415       2.72421837       0.01276045       0.00000000
Si      -0.03099987       2.72578221       2.73784303       0.00000000
