10
Lattice="16.28999089631971 0.0 0.0 0.0 16.28999089631971 0.0 0.0 0.0 34.385447050020396" Properties=species:S:1:pos:R:3:initial_magmoms:R:1 pbc="T T T"
Si       0.81508644      -1.94276707      -0.97847283       0.00000000
Si       1.29407760       1.94268024      -0.31407685       0.00000000
Si       0.08537589      -0.39040614       2.33604542       0.00000000
Si      -2.21141637      -0.04948902      -0.98376819       0.00000000
Si      -0.29059731       3.51192852       0.36696170       0.00000000
Si      -2.12809302       2.46860289       1.44140436       0.00000000
Si      -2.63133999      -2.37662045      -0.53572556       0.00000000
Si      -1.38034944       1.18884420       3.25506578       0.00000000
Si      -0.62742564      -3.71331269      -0.41651115       0.00000000
Si       0.91116486      -1.61637362      -3.33628425       0.00000000
