10
Lattice="16.28999089631971 0.0 0.0 0.0 16.28999089631971 0.0 0.0 0.0 34.385447050020396" Properties=species:S:1:pos:R:3:initial_magmoms:R:1 pbc="T T T"
Si      -0.05271444       0.85726125      -2.22862523       0.00000000
Si      -1.63734048       1.48550139       0.91169625       0.00000000
Si      -0.41992362      -2.32713143       0.44804263       0.00000000
Si       2.21141637       0.04948902       0.98376819       0.00000000
Si       0.08332335       2.51809191       2.42517255       0.00000000
Si      -0.59145732      -2.03786990       2.79457561       0.00000000
Si       3.02650281      -1.89327805       0.00529536       0.00000000
Si      -1.70057826      -0.42200874      -3.25991413       0.00000000
Si       1.98698904       0.32162976      -3.31826627       0.00000000
Si      -1.39991373       3.61999638      -0.30520540       0.00000000
