10
Lattice="16.28999089631971 0.0 0.0 0.0 16.28999089631971 0.0 0.0 0.0 34.385447050020396" Properties=species:S:1:pos:R:3:initial_magmoms:R:1 pbc="T T T"
Si       0.93717999       1.69067394      -1.29877345       0.00000000
Si      -1.80464597      -1.00426221      -1.10642115       0.00000000
Si      -0.81264294       0.96029550       2.05793577       0.00000000
Si       1.64952540      -1.88700102       0.19977956       0.00000000
Si      -1.20786277      -1.16688528       2.95838798       0.00000000
Si       0.84846465      -2.25724014       2.42888618       0.00000000
Si       2.33849466       0.32736384      -2.54896023       0.00000000
Si      -0.42369964      -2.38570960      -2.55026688       0.00000000
Si       1.31145903       1.11001689       3.18258122       0.00000000
Si       3.60028548      -0.91175130      -0.93452820       0.00000000
