10
Lattice="16.28999089631971 0.0 0.0 0.0 16.28999089631971 0.0 0.0 0.0 34.385447050020396" Properties=species:S:1:pos:R:3:initial_magmoms:R:1 pbc="T T T"
Si      -1.64786382      -1.27926999      -1.03128890       0.00000000
Si       2.03970348      -0.53563149      -1.08964104       0.00000000
Si       0.05271444      -0.85726125       2.22862523       0.00000000
Si      -1.18486944       2.08798704      -0.27759387       0.00000000
Si      -0.84680307      -0.90903087      -3.26039553       0.00000000
Si      -1.58462604       0.62824014       3.14032148       0.00000000
Si      -1.34719929       2.76273513       1.92341983       0.00000000
Si      -3.70419125      -0.18891513      -0.50178711       0.00000000
Si       3.39138252       1.31276223      -0.90058975       0.00000000
Si      -0.00501732       3.50702523      -1.63616364       0.00000000
