10
Lattice="16.28999089631971 0.0 0.0 0.0 16.28999089631971 0.0 0.0 0.0 34.385447050020396" Properties=species:S:1:pos:R:3:initial_magmoms:R:1 pbc="T T T"
Si      -1.35695700      -1.35584928      -1.35777891       0.00000000
Si      -1.35716877       1.35746199       1.35729751       0.00000000
Si       1.35793440      -1.35769005       1.35726312       0.00000000
Si       1.35845568       1.35990549      -1.35667857       0.00000000
Si      -2.71187775       0.00037467      -2.71101893       0.00000000
Si       0.00107514      -2.71388142       2.71394170       0.00000000
Si      -2.71443528       2.71345788       0.00030947       0.00000000
Si       0.00241092       2.71401174      -2.71480133       0.00000000
Si      -2.71485882      -0.00013032       2.71431994       0.00000000
Si       2.71513575       0.00016290       2.71442309       0.00000000
