10
Lattice="16.28999089631971 0.0 0.0 0.0 16.28999089631971 0.0 0.0 0.0 34.385447050020396" Properties=species:S:1:pos:R:3:initial_magmoms:R:1 pbc="T T T"
Si      -1.35700587      -1.35791811      -1.35685050       0.00000000
Si       1.35769005       1.35759231      -1.35702243       0.00000000
Si      -1.35451350       1.35930276       1.35918871       0.00000000
Si       1.35870003      -1.36085031       1.35991081       0.00000000
Si       0.00482184       2.71770957       2.68773997       0.00000000
Si       0.01677870      -2.70886410       2.71803357       0.00000000
Si       0.00042354       2.71358820      -2.71401047       0.00000000
Si      -2.71476271      -0.00008145      -2.71284136       0.00000000
Si       0.00014661      -2.71479366      -2.71418239       0.00000000
Si      -2.71356702       2.71544526       0.00000000       0.00000000
