10
Lattice="16.28999089631971 0.0 0.0 0.0 16.28999089631971 0.0 0.0 0.0 34.385447050020396" Properties=species:S:1:pos:R:3:initial_magmoms:R:1 pbc="T T T"
Si       0.74774358      -1.27975869       1.81366142       0.00000000
Si      -1.51456275       1.43620785       1.08609934       0.00000000
Si       1.83749571       1.04332563      -1.07444266       0.00000000
Si      -1.72066383      -1.03259052      -1.51347630       0.00000000
Si      -1.48323708       1.10190447      -2.73037795       0.00000000
Si      -2.79454624      -1.92487527       0.43803645       0.00000000
Si       0.53437716       2.45855196      -2.39384739       0.00000000
Si      -1.12422177      -2.75833683       1.81813153       0.00000000
Si      -0.08332335      -2.51809191      -2.42517255       0.00000000
Si       2.12809302      -2.46860289      -1.44140436       0.00000000
