10
Lattice="16.28999089631971 0.0 0.0 0.0 16.28999089631971 0.0 0.0 0.0 34.385447050020396" Properties=species:S:1:pos:R:3:initial_magmoms:R:1 pbc="T T T"
Si      -1.35765747       1.35718506       1.35537192       0.00000000
Si       1.35513252      -1.35703845       1.35836346       0.00000000
Si       1.35690813       1.35757602      -1.35774452       0.00000000
Si      -1.35754344      -1.35759231      -1.35743505       0.00000000
Si      -2.71041165       0.00252495       2.68732735       0.00000000
Si      -2.71469592       2.71381626      -0.00024070       0.00000000
Si      -2.71480995      -0.00159642      -2.71442309       0.00000000
Si       2.71482624      -0.00011403      -2.71449186       0.00000000
Si       0.00026064       2.71451673      -2.71500765       0.00000000
Si       2.71404432       2.71554300       0.00013754       0.00000000
