10
Lattice="16.28999089631971 0.0 0.0 0.0 16.28999089631971 0.0 0.0 0.0 34.385447050020396" Properties=species:S:1:pos:R:3:initial_magmoms:R:1 pbc="T T T"
Si       0.22747682      -0.03813489      -2.30943107       0.00000000
Si      -0.13391683      -2.32017330       0.66742190       0.00000000
Si      -2.31011326       0.89420697      -0.24066388       0.00000000
Si       2.34704202       0.77902038       1.33267752       0.00000000
Si       1.27315961      -0.11326437       3.28419027       0.00000000
Si       0.16915536      -2.22129625       2.98558688       0.00000000
Si      -1.40157109      -1.55725232      -3.15067150       0.00000000
Si       2.28380424      -1.12848975      -2.83893287       0.00000000
Si       0.62269665       2.08904589      -3.20988328       0.00000000
Si       2.58446877       2.91351537       0.11577586       0.00000000
