10
Lattice="16.28999089631971 0.0 0.0 0.0 16.28999089631971 0.0 0.0 0.0 34.385447050020396" Properties=species:S:1:pos:R:3:initial_magmoms:R:1 pbc="T T T"
Si      -1.18633554      -1.91484063       0.76683028       0.00000000
Si      -1.18240965       1.69663608      -1.20472920       0.00000000
Si       0.85669110       1.63610244       1.56433240       0.00000000
Si       1.64116863      -0.96563862      -1.66748880       0.00000000
Si       1.94966865       3.09407373       0.00110033       0.00000000
Si       1.58327397       0.78323949      -3.23137419       0.00000000
Si      -0.77726106       1.22126130      -3.48128776       0.00000000
Si       2.11743936       0.40153221       3.17167419       0.00000000
Si      -0.18565713      -3.85813989      -0.41857428       0.00000000
Si      -0.60476625      -2.38749498       3.02616173       0.00000000
