10
Lattice="16.28999089631971 0.0 0.0 0.0 16.28999089631971 0.0 0.0 0.0 34.385447050020396" Properties=species:S:1:pos:R:3:initial_magmoms:R:1 pbc="T T T"
Si       0.40514859      -0.47537478      -2.27655857       0.00000000
Si       1.18240965      -1.69663608       1.20472920       0.00000000
Si       1.08414837       2.14104424       0.09198112       0.00000000
Si      -2.15295156       0.49963059       1.07698719       0.00000000
Si       2.03910075      -0.06053364       2.76906160       0.00000000
Si       2.76568362      -0.91339659      -2.02664500       0.00000000
Si       3.13207830       1.39743765       1.20582953       0.00000000
Si      -3.56130351      -0.48627279      -0.65817221       0.00000000
Si      -0.85998168      -2.43613692      -2.64510199       0.00000000
Si      -0.15814332       1.49086080      -3.44968752       0.00000000
