10
Lattice="16.28999089631971 0.0 0.0 0.0 16.28999089631971 0.0 0.0 0.0 34.385447050020396" Properties=species:S:1:pos:R:3:initial_magmoms:R:1 pbc="T T T"
Si      -1.35371529       1.35879777      -1.36365882       0.00000000
Si       1.36102950      -1.35803866      -1.36214586       0.00000000
Si       1.37228589       1.35027810       1.37338991       0.00000000
Si      -1.35915615      -1.35025529       1.39422750       0.00000000
Si      -2.71094922       2.71169856      -0.00336978       0.00000000
Si      -2.70831024      -2.71518878       0.00182243       0.00000000
Si      -2.71168227      -0.00013032      -2.71958091       0.00000000
Si       2.72041371       2.71288773      -0.00233821       0.00000000
Si       2.71968066      -2.71375829      -0.00319785       0.00000000
Si       0.00312768      -2.71522506      -2.72006231       0.00000000
