10
Lattice="16.28999089631971 0.0 0.0 0.0 16.28999089631971 0.0 0.0 0.0 34.385447050020396" Properties=species:S:1:pos:R:3:initial_magmoms:R:1 pbc="T T T"
Si       0.46061604       0.98458389      -2.00941788       0.00000000
Si       1.03356792       1.58053725       1.48594183       0.00000000
Si      -1.64849913      -1.21743152       1.40117822       0.00000000
Si       1.29723786      -1.72179273      -1.39494960       0.00000000
Si       2.15984223       0.08522928       2.94499969       0.00000000
Si       2.94713793      -0.17637183      -2.27160706       0.00000000
Si       2.90282913       2.45612475       0.31665717       0.00000000
Si       2.40277500       2.21330601      -1.97413839       0.00000000
Si      -2.70010008      -2.71646243      -0.21714422       0.00000000
Si       2.54501928      -2.95755443       0.32658804       0.00000000
