10
Lattice="16.28999089631971 0.0 0.0 0.0 16.28999089631971 0.0 0.0 0.0 34.385447050020396" Properties=species:S:1:pos:R:3:initial_magmoms:R:1 pbc="T T T"
Si       1.35870003      -1.35762489       1.36228340       0.00000000
Si      -1.35565380       1.36071999       1.36396829       0.00000000
Si      -1.35480672      -1.35654975      -1.38598530       0.00000000
Si       1.36987497       1.35896067      -1.38244360       0.00000000
Si       0.22845096      -2.57466708      -2.82257226       0.00000000
Si      -2.71169856       2.71482624       0.00584553       0.00000000
Si      -2.71119357      -2.71596654       0.00140980       0.00000000
Si       2.71278999       2.71523349       0.00044701       0.00000000
Si       2.71485882      -2.71717200       0.00158173       0.00000000
Si      -2.71410948       0.00081450       2.72064686       0.00000000
