10
Lattice="16.28999089631971 0.0 0.0 0.0 16.28999089631971 0.0 0.0 0.0 34.385447050020396" Properties=species:S:1:pos:R:3:initial_magmoms:R:1 pbc="T T T"
Si      -2.04346647       0.84838320      -0.96750386       0.00000000
Si       0.41376600       0.93947688       2.35241290       0.00000000
Si       0.69506172      -2.23267482      -1.16865884       0.00000000
Si       2.39629158       0.94022622      -1.04239541       0.00000000
Si       1.67628987      -0.64159794      -2.61835010       0.00000000
Si       3.26264265      -0.22548618       0.76717414       0.00000000
Si      -0.92294253       2.15866935      -2.54951040       0.00000000
Si       2.44048635      -0.21248676       2.95161404       0.00000000
Si      -1.57555251       0.15397308       3.50938069       0.00000000
Si       1.86533532       2.98608732       1.67587885       0.00000000
