10
Lattice="16.28999089631971 0.0 0.0 0.0 16.28999089631971 0.0 0.0 0.0 34.385447050020396" Properties=species:S:1:pos:R:3:initial_magmoms:R:1 pbc="T T T"
Si      -1.35604476       1.35410625      -1.35812276       0.00000000
Si       1.35674523       1.35503478       1.35691927       0.00000000
Si      -1.35845568      -1.35990549       1.35667857       0.00000000
Si       1.35565380      -1.36071999      -1.36396829       0.00000000
Si       0.00493587       2.70313002      -2.71334683       0.00000000
Si      -2.71033020      -0.01404198      -2.70761477       0.00000000
Si      -2.71648782       2.70888039      -0.00195997       0.00000000
Si      -0.00117288       2.71272483       2.71366661       0.00000000
Si       2.71464705      -0.00289962       2.71407924       0.00000000
Si      -2.71562445      -0.00244350       2.71397608       0.00000000
