10
Lattice="16.28999089631971 0.0 0.0 0.0 16.28999089631971 0.0 0.0 0.0 34.385447050020396" Properties=species:S:1:pos:R:3:initial_magmoms:R:1 pbc="T T T"
Si      -1.35671265      -1.35283563      -1.39292085       0.00000000
Si       1.36008468       1.36024758      -1.38872583       0.00000000
Si       1.46660499      -1.30249953       1.42534635       0.00000000
Si      -1.44510219       1.37016819       1.46279212       0.00000000
Si      -2.70148473      -2.70212004      -0.00536413       0.00000000
Si       2.71554300      -2.71511946      -0.02238494       0.00000000
Si      -2.71573848       2.72308527      -0.02345089       0.00000000
Si       2.72541474       2.71790505      -0.01471698       0.00000000
Si       0.00291591      -2.71068858      -2.75159378       0.00000000
Si      -2.71184517       0.00420282      -2.75128431       0.00000000
