10
Lattice="16.28999089631971 0.0 0.0 0.0 16.28999089631971 0.0 0.0 0.0 34.385447050020396" Properties=species:S:1:pos:R:3:initial_magmoms:R:1 pbc="T T T"
Si      -1.12052394      -1.31028615       1.58200653       0.00000000
Si       1.24893801      -1.41261993      -1.44773129       0.00000000
Si      -1.46660499       1.30249953      -1.42534635       0.00000000
Si      -0.80708805       1.67286897       2.77910215       0.00000000
Si       0.92294253      -2.15866935       2.54951040       0.00000000
Si      -2.60703531      -2.62909197      -0.01127843       0.00000000
Si       2.59923240      -2.80026729      -0.06883970       0.00000000
Si       2.60889237      -0.05167188      -2.81898930       0.00000000
Si       3.31923411      -1.21844313       1.50711499       0.00000000
Si       2.72574054       2.71226871      -0.05374448       0.00000000
