10
Lattice="16.28999089631971 0.0 0.0 0.0 16.28999089631971 0.0 0.0 0.0 34.385447050020396" Properties=species:S:1:pos:R:3:initial_magmoms:R:1 pbc="T T T"
Si       0.07276743       1.14847758      -1.96929004       0.00000000
Si      -0.93160881       1.46458503       1.49119452       0.00000000
Si       1.61632638      -1.29855735       1.03710005       0.00000000
Si      -1.80400347      -1.49951079      -0.03166901       0.00000000
Si       0.16299774      -1.86090444       2.85832627       0.00000000
Si       1.73506419      -2.93557203      -0.58365890       0.00000000
Si       0.01785384       0.49319604       3.43730875       0.00000000
Si      -0.61155918      -3.43818369      -0.66195461       0.00000000
Si      -3.05963667       1.84746519       0.49102446       0.00000000
Si      -0.02153538       3.41174502      -1.30217761       0.00000000
