10
Lattice="16.28999089631971 0.0 0.0 0.0 16.28999089631971 0.0 0.0 0.0 34.385447050020396" Properties=species:S:1:pos:R:3:initial_magmoms:R:1 pbc="T T T"
Si      -0.05789466       1.74887811      -1.56388539       0.00000000
Si       2.19652731       0.05786208       0.90062413       0.00000000
Si      -0.81143748      -2.14786908      -0.76119107       0.00000000
Si      -1.64116863       0.96563862       1.66748880       0.00000000
Si       0.91072503       0.65269143      -3.40464256       0.00000000
Si      -1.82682576      -2.89250127       1.24891452       0.00000000
Si       1.40002776       3.38335155      -0.44340059       0.00000000
Si      -2.41842969       2.18689992      -1.81379896       0.00000000
Si      -2.41026840      -1.73200167      -2.41238116       0.00000000
Si      -2.82750417      -0.94920201       2.43431908       0.00000000
