10
Lattice="16.28999089631971 0.0 0.0 0.0 16.28999089631971 0.0 0.0 0.0 34.385447050020396" Properties=species:S:1:pos:R:3:initial_magmoms:R:1 pbc="T T T"
Si      -0.92681955       0.04631247       2.26583030       0.00000000
Si      -2.13548868       0.50411034      -1.09074138       0.00000000
Si       0.36562905      -1.74887811      -1.73801339       0.00000000
Si       2.22358500       1.59863544       0.14816697       0.00000000
Si      -1.12010040       1.24874253      -3.10084696       0.00000000
Si       0.85931379       1.14106563       3.64856072       0.00000000
Si      -0.01567098      -0.78548751      -3.86860565       0.00000000
Si      -3.13616709       2.44740960       0.09466319       0.00000000
Si      -2.55459780       1.97475525       2.35399464       0.00000000
Si       1.81907172       2.81821887       2.25345153       0.00000000
