10
Lattice="16.28999089631971 0.0 0.0 0.0 16.28999089631971 0.0 0.0 0.0 34.385447050020396" Properties=species:S:1:pos:R:3:initial_magmoms:R:1 pbc="T T T"
Si       1.38849444       1.32730920      -1.34459896       0.00000000
Si       1.35624024      -1.35231435       1.35564701       0.00000000
Si      -1.35664749       1.35899325       1.35578455       0.00000000
Si      -1.35330804      -1.36445040      -1.35745912       0.00000000
Si       0.09861966       2.68558569      -2.65984648       0.00000000
Si      -2.59677261       0.02350647      -2.75221616       0.00000000
Si       2.71019988      -2.71306692      -0.00763357       0.00000000
Si      -0.00149868      -2.71254564       2.71280698       0.00000000
Si       2.71357191       0.00337203       2.71328837       0.00000000
Si      -2.71428867      -2.71347417      -0.00223506       0.00000000
