10
Lattice="16.28999089631971 0.0 0.0 0.0 16.28999089631971 0.0 0.0 0.0 34.385447050020396" Properties=species:S:1:pos:R:3:initial_magmoms:R:1 pbc="T T T"
Si       1.32696711      -1.32817257      -1.45086036       0.00000000
Si       1.85315040       0.80143935       1.33257436       0.00000000
Si      -1.64602305      -1.28203929       1.24647315       0.00000000
Si      -1.38939039       1.41424634      -1.42156395       0.00000000
Si       2.62492173      -2.77778709       0.00825251       0.00000000
Si       2.71386513       2.70805679       0.04569828       0.00000000
Si      -0.02761155      -2.66344758      -2.82177452       0.00000000
Si       2.68944642       0.05074335      -2.81898930       0.00000000
Si      -2.73854448       0.04931286      -2.81396902       0.00000000
Si       3.63452706      -0.94113846       1.17783976       0.00000000
