10
Lattice="16.28999089631971 0.0 0.0 0.0 16.28999089631971 0.0 0.0 0.0 34.385447050020396" Properties=species:S:1:pos:R:3:initial_magmoms:R:1 pbc="T T T"
Si      -1.09297755      -1.45797129       1.56323207       0.00000000
Si       1.39667202       1.38892028       1.40361473       0.00000000
Si      -2.04792993       0.74360659      -1.11384841       0.00000000
Si       1.09152774      -0.67636080      -2.11198972       0.00000000
Si       2.89784439      -1.84326237      -1.16181613       0.00000000
Si      -3.13207830      -1.39743765      -1.20582953       0.00000000
Si      -1.94966865      -3.09407373      -0.00110033       0.00000000
Si      -2.60066592       0.39425058       2.58142011       0.00000000
Si      -3.24017874       2.18004902       0.38346672       0.00000000
Si       2.00955069       1.25235958      -3.19946448       0.00000000
