10
Lattice="16.28999089631971 0.0 0.0 0.0 16.28999089631971 0.0 0.0 0.0 34.385447050020396" Properties=species:S:1:pos:R:3:initial_magmoms:R:1 pbc="T T T"
Si      -1.35698958      -1.35707043      -1.35654103       0.00000000
Si       1.35708732      -1.35689172       1.35705681       0.00000000
Si      -1.35692442       1.35760208       1.35736628       0.00000000
Si       1.36067112       1.36040396      -1.35853539       0.00000000
Si      -0.00004887      -2.71422092       2.71421678       0.00000000
Si      -2.71463076      -2.71451414      -0.00044701       0.00000000
Si       2.71472850      -0.00045123       2.71476695       0.00000000
Si      -2.71451673       0.00006027      -2.71517957       0.00000000
Si      -2.71484253       2.71490117      -0.00034385       0.00000000
Si      -2.71433754      -0.00024109       2.71545466       0.00000000
