10
Lattice="16.28999089631971 0.0 0.0 0.0 16.28999089631971 0.0 0.0 0.0 34.385447050020396" Properties=species:S:1:pos:R:3:initial_magmoms:R:1 pbc="T T T"
Si       1.45529973       0.97895358      -1.53713350       0.00000000
Si       0.79506603      -1.07913873       1.93070955       0.00000000
Si      -0.99973359       2.13407096       0.06426644       0.00000000
Si      -1.14945498      -1.58447082      -1.35148637       0.00000000
Si      -1.19573487      -0.40854459       2.98599951       0.00000000
Si       2.59595357      -1.08470991      -1.67075542       0.00000000
Si       2.72295399       0.21603260       2.28095990       0.00000000
Si      -3.27492531      -1.45188651      -0.46767673       0.00000000
Si      -2.67393834      -1.79443263       1.79416486       0.00000000
Si       1.36836000      -3.13599558      -1.47957223       0.00000000
