10
Lattice="16.28999089631971 0.0 0.0 0.0 16.28999089631971 0.0 0.0 0.0 34.385447050020396" Properties=species:S:1:pos:R:3:initial_magmoms:R:1 pbc="T T T"
Si      -1.51878186       1.77265174      -0.53424699       0.00000000
Si      -0.56338965      -1.69173346       1.60164063       0.00000000
Si      -0.17919000      -1.34961088      -2.05315619       0.00000000
Si       2.15664029       1.23838861       0.32927522       0.00000000
Si      -0.64847232       2.21445283      -2.66109123       0.00000000
Si      -1.33221249       0.08720200      -3.48606734       0.00000000
Si       0.03692943      -3.78090967       0.29292979       0.00000000
Si       2.00680650      -2.13887767      -2.42114945       0.00000000
Si       3.45718502       0.08267827       1.94580477       0.00000000
Si       3.21808040       1.59114856      -1.75427772       0.00000000
