10
Lattice="16.28999089631971 0.0 0.0 0.0 16.28999089631971 0.0 0.0 0.0 34.385447050020396" Properties=species:S:1:pos:R:3:initial_magmoms:R:1 pbc="T T T"
Si      -1.35485559      -1.35547461      -1.35915433       0.00000000
Si      -1.35798327       1.35668007       1.35640349       0.00000000
Si       1.35736183      -1.35830907       1.35654103       0.00000000
Si       1.35930276       1.35785295      -1.35520000       0.00000000
Si       2.70633493       0.00794952      -2.70929966       0.00000000
Si      -0.00247608       2.70977634      -2.71435432       0.00000000
Si       2.71280206       0.00024435       2.71359784       0.00000000
Si      -2.71350675       0.00133578       2.71404485       0.00000000
Si       0.00034209       2.71365336       2.71442309       0.00000000
Si       2.71468519       2.71438641       0.00085964       0.00000000
