10
Lattice="16.28999089631971 0.0 0.0 0.0 16.28999089631971 0.0 0.0 0.0 34.385447050020396" Properties=species:S:1:pos:R:3:initial_magmoms:R:1 pbc="T T T"
Si       1.82660489       0.97782354       1.09871880       0.00000000
Si      -1.18509750       1.49291334      -1.38157365       0.00000000
Si       1.49156194      -1.21389822      -1.40072635       0.00000000
Si      -1.83576897      -1.02356586       1.58372581       0.00000000
Si      -2.55577068      -2.60539002       0.00777112       0.00000000
Si       0.80191176       2.57743638       2.51230532       0.00000000
Si      -2.54611071       0.14320539      -2.74237848       0.00000000
Si       0.16914021      -2.57150682      -2.74729560       0.00000000
Si      -2.42926254       2.90714598       0.02286634       0.00000000
Si       2.85676820      -2.55915900      -0.13221212       0.00000000
