10
Lattice="16.28999089631971 0.0 0.0 0.0 16.28999089631971 0.0 0.0 0.0 34.385447050020396" Properties=species:S:1:pos:R:3:initial_magmoms:R:1 pbc="T T T"
Si       0.72000171       1.58182416       1.57595469       0.00000000
Si       1.37979558      -1.31235498      -1.38845074       0.00000000
Si      -0.98122815      -1.59107688       1.44969126       0.00000000
Si      -1.35029439       1.38764736      -1.37889158       0.00000000
Si      -1.67628987       0.64159794       2.61835010       0.00000000
Si       2.55577068       2.60539002      -0.00777112       0.00000000
Si       2.67071292      -2.64870513       0.05236907       0.00000000
Si       1.58635278       0.41611176       3.38552424       0.00000000
Si       0.81392985      -3.46230918       1.27852041       0.00000000
Si      -2.59923240       2.80026729       0.06883970       0.00000000
