10
Lattice="16.28999089631971 0.0 0.0 0.0 16.28999089631971 0.0 0.0 0.0 34.385447050020396" Properties=species:S:1:pos:R:3:initial_magmoms:R:1 pbc="T T T"
Si      -0.86635107       1.16571240      -1.80956955       0.00000000
Si      -0.82215630       0.01299942       2.18443990       0.00000000
Si       2.07636317      -1.10025918      -0.16879825       0.00000000
Si       1.03659786       2.97158922       0.58345259       0.00000000
Si      -3.26264265       0.22548618      -0.76717414       0.00000000
Si      -2.84887665       1.16496306       1.58523877       0.00000000
Si      -1.39730733       3.21157350       0.90870472       0.00000000
Si       1.68114333      -3.22743996       0.73165395       0.00000000
Si      -0.85644675      -2.29509810       2.80042114       0.00000000
Si      -1.58635278      -0.41611176      -3.38552424       0.00000000
