10
Lattice="16.28999089631971 0.0 0.0 0.0 16.28999089631971 0.0 0.0 0.0 34.385447050020396" Properties=species:S:1:pos:R:3:initial_magmoms:R:1 pbc="T T T"
Si       1.35556488       1.35752715       1.35791645       0.00000000
Si      -1.35847197      -1.35769005       1.35843223       0.00000000
Si       1.36214929      -1.36606311      -1.35368704       0.00000000
Si      -1.36492281       1.36549296      -1.35585332       0.00000000
Si       2.71273202      -2.71521720       0.00237260       0.00000000
Si      -2.71352304      -2.71464705      -0.00017193       0.00000000
Si       2.71475198       2.71440270      -0.00113472       0.00000000
Si       2.71427957      -0.00047241       2.71545466       0.00000000
Si      -2.71497285       2.71477737       0.00199436       0.00000000
Si      -0.00104845       2.71482624       2.71552343       0.00000000
