10
Lattice="16.28999089631971 0.0 0.0 0.0 16.28999089631971 0.0 0.0 0.0 34.385447050020396" Properties=species:S:1:pos:R:3:initial_magmoms:R:1 pbc="T T T"
Si       1.36520626      -1.34526078       1.26851424       0.00000000
Si      -1.32242173      -1.35760860      -1.34656924       0.00000000
Si       1.39522873       1.35959598      -1.34051740       0.00000000
Si      -1.49156194       1.21389822       1.40072635       0.00000000
Si       2.18289910       0.51223905       2.42475992       0.00000000
Si       0.33504295       2.19172176       2.49944516       0.00000000
Si      -2.66753704      -2.70384678       0.02004673       0.00000000
Si      -2.67936358      -0.00052128      -2.69898402       0.00000000
Si      -2.67665944       2.70681156       0.01915270       0.00000000
Si       0.03309639      -2.71393029      -2.69980927       0.00000000
