10
Lattice="16.28999089631971 0.0 0.0 0.0 16.28999089631971 0.0 0.0 0.0 34.385447050020396" Properties=species:S:1:pos:R:3:initial_magmoms:R:1 pbc="T T T"
Si       1.36101321       1.34970795       1.36080483       0.00000000
Si      -1.35852084       1.35602847      -1.35781329       0.00000000
Si       1.35830907      -1.35762489      -1.35733190       0.00000000
Si      -1.35995436      -1.36094805       1.37125801       0.00000000
Si       2.54611071      -0.14320539       2.74237848       0.00000000
Si      -2.71251306      -2.71647153       0.00288838       0.00000000
Si      -2.71461447       0.00032580      -2.71497326       0.00000000
Si      -2.71541268       2.71441899       0.00491712       0.00000000
Si      -0.00001629      -2.71459818      -2.71535150       0.00000000
Si       2.71525092      -2.71471221      -0.00491712       0.00000000
