10
Lattice="16.28999089631971 0.0 0.0 0.0 16.28999089631971 0.0 0.0 0.0 34.385447050020396" Properties=species:S:1:pos:R:3:initial_magmoms:R:1 pbc="T T T"
Si       0.42000507       1.95405066       1.35289617       0.00000000
Si       1.12848975      -1.57926663       1.45622450       0.00000000
Si      -2.46687615      -0.73381563       0.00993740       0.00000000
Si       1.06595244       0.30558411      -2.82290924       0.00000000
Si       2.68074756       1.34851878      -1.44195453       0.00000000
Si      -3.06423045       1.34205165      -1.20087802       0.00000000
Si       2.49095277       2.63764422       0.49549457       0.00000000
Si       2.99884239       0.87979032       2.03489751       0.00000000
Si      -1.33213104      -0.35748405       3.75919110       0.00000000
Si      -1.65978810      -2.40668460      -2.76916475       0.00000000
