10
Lattice="16.28999089631971 0.0 0.0 0.0 16.28999089631971 0.0 0.0 0.0 34.385447050020396" Properties=species:S:1:pos:R:3:initial_magmoms:R:1 pbc="T T T"
Si       0.73643832      -1.01911869       1.96653920       0.00000000
Si      -0.81769284      -1.85749983      -1.15624569       0.00000000
Si       1.91596464       0.96778890      -0.99057651       0.00000000
Si      -1.84785615       1.67948271       0.07468523       0.00000000
Si       0.20807217       1.15142607       2.56611858       0.00000000
Si      -2.18289910      -0.51223905      -2.42475992       0.00000000
Si       0.57166497       2.20576374      -2.43672607       0.00000000
Si      -0.86514561       3.44155572      -1.13193516       0.00000000
Si       2.74901895       2.69514792       0.44714860       0.00000000
Si      -3.67446104       0.70165917      -1.02403357       0.00000000
