10
Lattice="16.28999089631971 0.0 0.0 0.0 16.28999089631971 0.0 0.0 0.0 34.385447050020396" Properties=species:S:1:pos:R:3:initial_magmoms:R:1 pbc="T T T"
Si      -1.20933702       1.58775372      -1.23265019       0.00000000
Si      -1.37854125      -0.87506622       1.73478116       0.00000000
Si       1.67426991       1.46261394       0.89250916       0.00000000
Si       1.29754737      -1.75464477      -1.09380168       0.00000000
Si       0.51155487      -1.95944265       2.58461796       0.00000000
Si       2.20692033       2.35916667      -1.19506688       0.00000000
Si       1.50917076      -3.14807508       0.85678266       0.00000000
Si      -3.04784271       0.39464154      -2.04459421       0.00000000
Si      -1.53929097       0.77944392       3.40244189       0.00000000
Si      -2.39559111       2.96663706       0.30582434       0.00000000
