10
Lattice="16.28999089631971 0.0 0.0 0.0 16.28999089631971 0.0 0.0 0.0 34.385447050020396" Properties=species:S:1:pos:R:3:initial_magmoms:R:1 pbc="T T T"
Si       1.02653064      -0.42679800       2.14142368       0.00000000
Si      -2.23568847       1.07553096       0.25173600       0.00000000
Si       1.30505706       1.85893335      -1.09926897       0.00000000
Si       0.32953041      -2.08694448      -1.89508620       0.00000000
Si       2.50773147      -1.98317718       1.06519297       0.00000000
Si      -0.75018708       2.11924755      -2.59390203       0.00000000
Si       1.30065876      -0.61963902      -3.41172596       0.00000000
Si       3.02418963       0.63260586      -2.34061869       0.00000000
Si      -1.83886407      -2.90812338      -1.85647132       0.00000000
Si       3.86398867      -1.04545962      -0.72501756       0.00000000
