10
Lattice="16.28999089631971 0.0 0.0 0.0 16.28999089631971 0.0 0.0 0.0 34.385447050020396" Properties=species:S:1:pos:R:3:initial_magmoms:R:1 pbc="T T T"
Si       1.32261768      -1.30225518       1.60967652       0.00000000
Si      -2.02030209      -0.68584158      -1.22947439       0.00000000
Si      -1.36805049       1.44692667       1.61979616       0.00000000
Si       1.51139176       0.82393191      -1.94589558       0.00000000
Si      -2.77808031      -2.61303003       0.10113453       0.00000000
Si      -2.72616408       2.85855032       0.23503498       0.00000000
Si       2.29697375      -3.23437950       0.16905271       0.00000000
Si      -0.03863988      -2.62316241       3.01494519       0.00000000
Si      -3.72355191       1.11522969      -0.97358287       0.00000000
Si      -1.57747473      -0.81259407      -3.59467869       0.00000000
