10
Lattice="16.28999089631971 0.0 0.0 0.0 16.28999089631971 0.0 0.0 0.0 34.385447050020396" Properties=species:S:1:pos:R:3:initial_magmoms:R:1 pbc="T T T"
Si      -0.98284086       2.10611781       0.00257891       0.00000000
Si       0.10891494      -0.23599323      -2.33105953       0.00000000
Si       1.94038335      -0.71285040       1.15125980       0.00000000
Si      -1.47587400      -1.48426335       1.11367648       0.00000000
Si       2.83867489      -1.98586503      -0.60986063       0.00000000
Si       1.69349211      -1.87362693      -2.68856522       0.00000000
Si      -2.70798444       1.98492021       1.53005009       0.00000000
Si      -2.66212809      -0.10538001       2.65215101       0.00000000
Si      -1.55916477       2.67827148      -2.16095463       0.00000000
Si       0.43163613       2.00767734      -3.21624459       0.00000000
