10
Lattice="16.28999089631971 0.0 0.0 0.0 16.28999089631971 0.0 0.0 0.0 34.385447050020396" Properties=species:S:1:pos:R:3:initial_magmoms:R:1 pbc="T T T"
Si       2.23075260       0.60431013      -0.40966845       0.00000000
Si      -1.33992255       1.43949843       1.29358124       0.00000000
Si      -0.81865721      -0.47234484      -2.17615300       0.00000000
Si       0.60556446      -1.95447420       1.23096531       0.00000000
Si       0.63689013      -2.28877758      -2.58551198       0.00000000
Si       2.65450437      -0.93213009      -2.24898142       0.00000000
Si      -0.12660588       1.96248888       3.20685735       0.00000000
Si       3.43380168       0.11147247       1.61642638       0.00000000
Si      -3.22524800      -0.46724607      -1.98686101       0.00000000
Si      -1.60234467       3.47881095       0.22226765       0.00000000
