10
Lattice="16.28999089631971 0.0 0.0 0.0 16.28999089631971 0.0 0.0 0.0 34.385447050020396" Properties=species:S:1:pos:R:3:initial_magmoms:R:1 pbc="T T T"
Si       1.35058272      -1.34915409       1.35605963       0.00000000
Si      -1.35777321      -1.33758819      -1.38000567       0.00000000
Si      -1.36214929       1.36606311       1.35368704       0.00000000
Si       1.35590955       1.34819298      -1.39080959       0.00000000
Si      -0.39145847       2.12033898      -2.84805877       0.00000000
Si      -2.40420430       0.39187224      -2.73132699       0.00000000
Si       0.16438076      -2.61009783      -2.76254211       0.00000000
Si       2.71211721      -2.70609480       0.00085964       0.00000000
Si      -0.00562657      -2.70668124       2.71335714       0.00000000
Si       2.70955968       0.00698841       2.71218804       0.00000000
