10
Lattice="16.28999089631971 0.0 0.0 0.0 16.28999089631971 0.0 0.0 0.0 34.385447050020396" Properties=species:S:1:pos:R:3:initial_magmoms:R:1 pbc="T T T"
Si       1.35718966      -1.35698958      -1.35513123       0.00000000
Si      -1.35780504       1.35806472      -1.35636910       0.00000000
Si      -1.35715344      -1.35772263       1.35843223       0.00000000
Si       1.35838534       1.35853713       1.35771014       0.00000000
Si       0.00180723      -2.71352304      -2.71119086       0.00000000
Si      -0.00021159      -2.71480995       2.71084700       0.00000000
Si       2.71339894       0.00053757      -2.71242874       0.00000000
Si      -2.71285611       0.00110772      -2.71497326       0.00000000
Si       0.00314615       2.71251306       2.71586728       0.00000000
Si       2.71494649      -2.71482624       0.00085964       0.00000000
