10
Lattice="16.28999089631971 0.0 0.0 0.0 16.28999089631971 0.0 0.0 0.0 34.385447050020396" Properties=species:S:1:pos:R:3:initial_magmoms:R:1 pbc="T T T"
Si      -1.35656115      -1.35674523       1.35705681       0.00000000
Si       1.35754344       1.35681039       1.35722874       0.00000000
Si       1.35742941      -1.35860229      -1.35695366       0.00000000
Si      -1.35871469       1.35799956      -1.35753821       0.00000000
Si      -2.71180034      -0.00276930       2.71521396       0.00000000
Si       2.71458189       0.00017919       2.71284136       0.00000000
Si      -0.00154755      -2.71474479      -2.71308206       0.00000000
Si       0.00249237      -2.71288773       2.71624552       0.00000000
Si       2.71469592      -2.71459818       0.00003439       0.00000000
Si      -2.71427957       0.00047241      -2.71545466       0.00000000
