10
Lattice="16.28999089631971 0.0 0.0 0.0 16.28999089631971 0.0 0.0 0.0 34.385447050020396" Properties=species:S:1:pos:R:3:initial_magmoms:R:1 pbc="T T T"
Si       1.02469313      -1.59961284      -1.41358652       0.00000000
Si      -1.61637918       1.37264427      -1.10848428       0.00000000
Si      -0.73473180      -1.79512542       1.46444262       0.00000000
Si       2.06880068       1.20977685       0.47757974       0.00000000
Si      -1.29828435       0.90391581       2.36836776       0.00000000
Si       2.00740367       0.16246017      -2.62020691       0.00000000
Si      -1.80617397       2.66176971       0.82896482       0.00000000
Si       1.37575892      -1.72164123       2.62591490       0.00000000
Si       2.07678278       0.60268113       2.72566714       0.00000000
Si      -0.80191176      -2.57743638      -2.51230532       0.00000000
