10
Lattice="16.28999089631971 0.0 0.0 0.0 16.28999089631971 0.0 0.0 0.0 34.385447050020396" Properties=species:S:1:pos:R:3:initial_magmoms:R:1 pbc="T T T"
Si      -1.82660489      -0.97782354      -1.09871880       0.00000000
Si       0.98271054       1.76207301      -1.20662040       0.00000000
Si      -1.02469313       1.59961284       1.41358652       0.00000000
Si       1.84785615      -1.67948271      -0.07468523       0.00000000
Si       2.05592832      -0.52805664       2.49143334       0.00000000
Si      -0.33504295      -2.19172176      -2.49944516       0.00000000
Si      -1.75942493      -0.19551258       2.87802914       0.00000000
Si       2.41952112       0.52628103      -2.51141130       0.00000000
Si       1.04410755       2.80938969       1.89116626       0.00000000
Si       2.73129543       2.53156374       0.19242107       0.00000000
