10
Lattice="16.28999089631971 0.0 0.0 0.0 16.28999089631971 0.0 0.0 0.0 34.385447050020396" Properties=species:S:1:pos:R:3:initial_magmoms:R:1 pbc="T T T"
Si       1.43681058      -1.23579198      -1.30479090       0.00000000
Si      -1.27835938       1.47155715      -1.29296230       0.00000000
Si      -0.98271054      -1.76207301       1.20662040       0.00000000
Si       1.74858489       0.76949073       1.39904147       0.00000000
Si       0.06139701       1.04731668       3.09778666       0.00000000
Si      -2.00740367      -0.16246017       2.62020691       0.00000000
Si       0.07747524      -2.59419879      -2.63334216       0.00000000
Si       0.86514561      -3.44155572       1.13193516       0.00000000
Si       2.78111025      -2.47376682       0.14135865       0.00000000
Si      -2.63681747       0.11591964      -2.63437373       0.00000000
