10
Lattice="16.28999089631971 0.0 0.0 0.0 16.28999089631971 0.0 0.0 0.0 34.385447050020396" Properties=species:S:1:pos:R:3:initial_magmoms:R:1 pbc="T T T"
Si       2.23938630      -0.06625143       0.61876647       0.00000000
Si      -0.00798210       0.60709572      -2.24808740       0.00000000
Si      -1.45437609       1.58309478       1.01364916       0.00000000
Si      -0.70102386      -2.32432236      -0.09975224       0.00000000
Si       1.00383867      -2.73035061      -1.64782031       0.00000000
Si      -3.37506713       0.30123468      -0.35729938       0.00000000
Si      -2.07678278      -0.60268113      -2.72566714       0.00000000
Si       3.00311037      -1.55953944      -1.23667329       0.00000000
Si      -0.41168088       1.65033990       3.32242691       0.00000000
Si      -3.19439474       0.23464116       2.04125882       0.00000000
