10
Lattice="16.28999089631971 0.0 0.0 0.0 16.28999089631971 0.0 0.0 0.0 34.385447050020396" Properties=species:S:1:pos:R:3:initial_magmoms:R:1 pbc="T T T"
Si       1.70486253      -0.40602825      -1.54806808       0.00000000
Si      -2.11049072      -0.07348419      -1.16147228       0.00000000
Si      -0.56450063      -1.50443037       1.82129499       0.00000000
Si       0.70102386       2.32432236       0.09975224       0.00000000
Si      -1.37575892       1.72164123      -2.62591490       0.00000000
Si       0.69304176       2.93141808      -2.14833516       0.00000000
Si       0.89104671      -3.32086311       1.41193602       0.00000000
Si      -2.67404327       2.62555704      -0.25754714       0.00000000
Si       2.94041016       2.25807093       0.71851870       0.00000000
Si      -2.97109142      -1.49933160       2.01058698       0.00000000
