10
Lattice="16.28999089631971 0.0 0.0 0.0 16.28999089631971 0.0 0.0 0.0 34.385447050020396" Properties=species:S:1:pos:R:3:initial_magmoms:R:1 pbc="T T T"
Si       1.05329185      -0.84753612      -1.95484814       0.00000000
Si      -1.85338890       1.04524785      -1.09074138       0.00000000
Si      -1.29257307      -1.12456386       1.67247469       0.00000000
Si       1.76689159       1.15038351       1.22040897       0.00000000
Si       1.54976218      -2.88839619      -0.90942681       0.00000000
Si       2.28605389       1.17867924      -2.41454744       0.00000000
Si       0.82041001       3.29233932       1.58159391       0.00000000
Si       3.52173184       1.34247519      -0.40533588       0.00000000
Si      -1.43726085       2.78444970       2.17171728       0.00000000
Si       0.64890889       2.96214102      -2.40846121       0.00000000
