10
Lattice="16.28999089631971 0.0 0.0 0.0 16.28999089631971 0.0 0.0 0.0 34.385447050020396" Properties=species:S:1:pos:R:3:initial_magmoms:R:1 pbc="T T T"
Si      -1.35585095      -1.35558864      -1.35767575       0.00000000
Si       1.36100832      -1.35353610       1.35623156       0.00000000
Si      -1.35463960       1.36129259       1.35568139       0.00000000
Si       1.35934674       1.35925452      -1.35760698       0.00000000
Si       0.00613481      -2.71801908       2.69888086       0.00000000
Si      -2.71325818      -2.71393029       0.00110033       0.00000000
Si       0.00076237      -2.71288773      -2.71528273       0.00000000
Si      -2.71382833       0.00109143      -2.71545466       0.00000000
Si      -2.71376317       2.71611545      -0.00024070       0.00000000
Si       2.71702050      -2.71407690      -0.00051578       0.00000000
