10
Lattice="16.28999089631971 0.0 0.0 0.0 16.28999089631971 0.0 0.0 0.0 34.385447050020396" Properties=species:S:1:pos:R:3:initial_magmoms:R:1 pbc="T T T"
Si      -1.36530304      -1.32771645      -1.27728253       0.00000000
Si       1.71312319      -0.77902038       1.35344634       0.00000000
Si       1.27459639       1.50682732      -1.22467277       0.00000000
Si      -1.28542142       0.49273992       1.94081887       0.00000000
Si       0.91175293       0.74601684       2.87073942       0.00000000
Si      -2.51301499      -1.55854575       2.13200206       0.00000000
Si       0.02220327      -2.58629814      -2.61013197       0.00000000
Si      -2.32322020      -2.84767119       0.19455297       0.00000000
Si      -2.69640781       0.12983130      -2.58265799       0.00000000
Si       2.72406430       0.13183497      -2.57254866       0.00000000
