10
Lattice="16.28999089631971 0.0 0.0 0.0 16.28999089631971 0.0 0.0 0.0 34.71893929493243" Properties=species:S:1:pos:R:3:initial_magmoms:R:1 pbc="T T T"
Si      -1.35736425      -1.34003169      -1.38271725       0.00000000
Si       1.35749457       1.37863899      -1.37653727       0.00000000
Si      -1.35891180       1.30365612       1.46357770       0.00000000
Si       1.34343630      -1.38963474       1.54214671       0.00000000
Si       2.48406210       0.15814332       2.88865208       0.00000000
Si      -2.71064134      -2.69203001       0.00458290       0.00000000
Si       2.71689507      -2.68841363      -0.00170123       0.00000000
Si      -0.00040725      -2.69697240      -2.74120067       0.00000000
Si      -2.71798487       2.73414618       0.01426949       0.00000000
Si      -2.71519439       0.01845657      -2.74019382       0.00000000
