10
Lattice="16.28999089631971 0.0 0.0 0.0 16.28999089631971 0.0 0.0 0.0 34.71893929493243" Properties=species:S:1:pos:R:3:initial_magmoms:R:1 pbc="T T T"
Si      -1.54486215      -1.44746424      -0.95070925       0.00000000
Si      -0.73405346       1.87820442       1.23332157       0.00000000
Si       1.01037096       1.26584703      -1.72390046       0.00000000
Si       1.31717682      -1.36023129       1.42257461       0.00000000
Si       1.53160209       2.64849336       1.56759570       0.00000000
Si       2.64455118       2.38625694      -0.49686302       0.00000000
Si      -1.44728505      -0.86006313      -3.28083744       0.00000000
Si      -1.79695642       3.24651555      -0.46773381       0.00000000
Si       3.50360433      -1.32566391       0.41506515       0.00000000
Si      -0.63471704       2.77830837      -2.47851702       0.00000000
