10
Lattice="16.28999089631971 0.0 0.0 0.0 16.28999089631971 0.0 0.0 0.0 34.71893929493243" Properties=species:S:1:pos:R:3:initial_magmoms:R:1 pbc="T T T"
Si      -2.06701271      -0.03386691      -1.14968360       0.00000000
Si       2.08723770       0.76388697      -0.90095698       0.00000000
Si      -0.25550376       1.73048411       1.72893471       0.00000000
Si       0.13445766      -2.27662524       0.97494308       0.00000000
Si       3.41404191      -0.36626436       0.97549858       0.00000000
Si       1.98244413      -1.74022812       2.45685239       0.00000000
Si      -3.08064167      -2.02127949      -0.18626721       0.00000000
Si      -2.80791449       2.22065184      -0.96970052       0.00000000
Si       0.16228098      -3.62924910      -0.98365754       0.00000000
Si      -1.49947984       3.47790590       0.62591339       0.00000000
