10
Lattice="16.28999089631971 0.0 0.0 0.0 16.28999089631971 0.0 0.0 0.0 34.71893929493243" Properties=species:S:1:pos:R:3:initial_magmoms:R:1 pbc="T T T"
Si       1.19586519      -1.54514885      -1.28532015       0.00000000
Si       1.35503478       1.35840681       1.36486476       0.00000000
Si      -1.36619343      -1.35541108       1.36795475       0.00000000
Si      -1.26747603       1.43342226      -1.41390529       0.00000000
Si      -0.47754135      -2.52205364      -2.61709184       0.00000000
Si       2.68517844       2.72280834      -0.01858853       0.00000000
Si      -2.71288773      -2.70023759       0.05097090       0.00000000
Si       2.70834282      -0.00087966       2.72265380       0.00000000
Si      -2.71114470       2.72290608      -0.00681880       0.00000000
Si      -0.00674406       2.71526607       2.72112616       0.00000000
