10
Lattice="16.28999089631971 0.0 0.0 0.0 16.28999089631971 0.0 0.0 0.0 34.71893929493243" Properties=species:S:1:pos:R:3:initial_magmoms:R:1 pbc="T T T"
Si      -1.35830907      -1.35664749      -1.35671275       0.00000000
Si       1.35674523       1.35874890      -1.35667803       0.00000000
Si       1.36093176      -1.35982404       1.35650444       0.00000000
Si      -1.35757602       1.36124127       1.36483699       0.00000000
Si       2.71290402      -2.71346114      -0.00093741       0.00000000
Si      -0.00052128      -2.71417464      -2.71408516       0.00000000
Si       2.71466334       0.00061902      -2.71408516       0.00000000
Si      -2.71547784      -2.71437012       0.00017359       0.00000000
Si      -2.71581993       0.00107514      -2.71471010       0.00000000
Si      -0.00087966       2.71625976      -2.71460594       0.00000000
