10
Lattice="16.28999089631971 0.0 0.0 0.0 16.28999089631971 0.0 0.0 0.0 34.71893929493243" Properties=species:S:1:pos:R:3:initial_magmoms:R:1 pbc="T T T"
Si       1.14062580       1.54777806       1.34650538       0.00000000
Si      -0.70268544      -1.80016229       1.41174230       0.00000000
Si       1.37345877      -1.29877889      -1.54384794       0.00000000
Si      -1.34343630       1.38963474      -1.54214671       0.00000000
Si      -2.53048860      -2.55654869      -0.06700759       0.00000000
Si       2.66848119       2.64619647      -0.15425633       0.00000000
Si      -2.70234810       2.69329086      -0.07856900       0.00000000
Si       2.70221778      -2.72799575      -0.16345686       0.00000000
Si       0.01260846      -2.66663132      -2.92368351       0.00000000
Si      -2.70080055       0.04960305      -2.92486396       0.00000000
