10
Lattice="16.28999089631971 0.0 0.0 0.0 16.28999089631971 0.0 0.0 0.0 34.71893929493243" Properties=species:S:1:pos:R:3:initial_magmoms:R:1 pbc="T T T"
Si      -1.21444461       2.03980285       0.29236835       0.00000000
Si       2.37442877       0.01924826       0.54022700       0.00000000
Si      -1.41787413      -0.66850413       1.87610837       0.00000000
Si      -0.11633503      -1.59074035      -1.95235120       0.00000000
Si      -3.06360396       0.80314750       1.02792421       0.00000000
Si       2.06488619      -0.44349525       2.79338326       0.00000000
Si       0.33957808      -3.51305809      -0.69979533       0.00000000
Si      -2.46774834      -1.75678432      -2.04084983       0.00000000
Si      -0.13335157       2.97167230       2.13073721       0.00000000
Si      -1.01497356       3.06366193      -1.83843830       0.00000000
