10
Lattice="16.28999089631971 0.0 0.0 0.0 16.28999089631971 0.0 0.0 0.0 34.71893929493243" Properties=species:S:1:pos:R:3:initial_magmoms:R:1 pbc="T T T"
Si       0.34028181      -2.08118501      -1.11951282       0.00000000
Si      -2.17363986      -0.16482059       1.00105174       0.00000000
Si      -0.19235232       1.52252856      -1.91395204       0.00000000
Si       1.77541452       0.37455434       1.80430956       0.00000000
Si       1.45274220       3.10298436      -1.28345575       0.00000000
Si      -0.38775087      -1.68898697      -3.35892038       0.00000000
Si      -2.53658106       1.64597418       2.42126546       0.00000000
Si      -2.46870063      -2.18834063       2.22322852       0.00000000
Si       2.62308096      -2.82984083      -1.14454519       0.00000000
Si       0.18793773       0.42662696      -4.01760846       0.00000000
