10
Lattice="16.28999089631971 0.0 0.0 0.0 16.28999089631971 0.0 0.0 0.0 34.71893929493243" Properties=species:S:1:pos:R:3:initial_magmoms:R:1 pbc="T T T"
Si      -1.86489549      -0.97756290      -1.08607916       0.00000000
Si       1.26747603      -1.43342226       1.41390529       0.00000000
Si      -1.44366867       1.28948382       1.40708649       0.00000000
Si       1.44862083       1.35092970      -1.95604326       0.00000000
Si       0.79322526      -1.02327264      -2.96629552       0.00000000
Si       2.42776386       2.57364081      -0.06572646       0.00000000
Si      -0.82217259      -2.70077612      -2.39180091       0.00000000
Si       2.62251081      -0.07501545       2.77877005       0.00000000
Si      -2.89748601       2.49707781      -0.09082132       0.00000000
Si      -0.10067220       2.64310137       2.77970746       0.00000000
