10
Lattice="16.28999089631971 0.0 0.0 0.0 16.28999089631971 0.0 0.0 0.0 34.71893929493243" Properties=species:S:1:pos:R:3:initial_magmoms:R:1 pbc="T T T"
Si       1.41503085      -1.24683660      -1.40997163       0.00000000
Si      -1.52785539      -1.09841841       1.50076171       0.00000000
Si      -1.30134294       1.48833585      -1.38056467       0.00000000
Si       1.74793329       1.20822930       1.23130787       0.00000000
Si      -2.66848119      -2.64619647       0.15425633       0.00000000
Si       2.85019614      -2.49913035       0.01288073       0.00000000
Si       0.06408486      -2.59898805      -2.77276020       0.00000000
Si       3.58619463      -0.48627279       1.25953438       0.00000000
Si      -2.65442292       0.12207726      -2.76442765       0.00000000
Si      -2.59191819       2.92726413       0.20654309       0.00000000
