10
Lattice="16.28999089631971 0.0 0.0 0.0 16.28999089631971 0.0 0.0 0.0 34.71893929493243" Properties=species:S:1:pos:R:3:initial_magmoms:R:1 pbc="T T T"
Si       0.33461289      -1.86592176      -1.32977084       0.00000000
Si       1.79585847       0.73256130       1.26859603       0.00000000
Si      -1.71810630      -0.21478365       1.57679623       0.00000000
Si      -0.41238135       1.59821190      -1.68956341       0.00000000
Si       3.41811441       0.01272249      -0.24105373       0.00000000
Si       2.48253084      -1.19768967      -2.04682149       0.00000000
Si      -2.45265498       0.56482317      -2.35693123       0.00000000
Si      -0.39333834       3.46173903      -0.18810732       0.00000000
Si      -1.72460601      -1.77029946      -2.46539326       0.00000000
Si       1.05235029       2.96730495       1.67682155       0.00000000
