10
Lattice="16.28999089631971 0.0 0.0 0.0 16.28999089631971 0.0 0.0 0.0 34.71893929493243" Properties=species:S:1:pos:R:3:initial_magmoms:R:1 pbc="T T T"
Si      -1.82715156      -0.99447192      -1.08284960       0.00000000
Si      -0.26107983       2.34564597       0.25688558       0.00000000
Si      -0.87496848      -0.63213345       2.15129084       0.00000000
Si       2.03958945      -0.57034548      -1.39834078       0.00000000
Si       1.69857459       3.02485752       1.39722977       0.00000000
Si      -1.27593054      -1.16900298      -3.31711875       0.00000000
Si       0.32115735      -2.54454687       2.78949474       0.00000000
Si      -3.81669813       0.28370664      -0.80725051       0.00000000
Si      -0.03986163       3.53455533      -1.72518506       0.00000000
Si       1.03070088      -1.62733842      -3.43926005       0.00000000
