10
Lattice="16.28999089631971 0.0 0.0 0.0 16.28999089631971 0.0 0.0 0.0 34.71893929493243" Properties=species:S:1:pos:R:3:initial_magmoms:R:1 pbc="T T T"
Si       0.78165936      -0.61204788      -2.10087444       0.00000000
Si       1.77999201       1.09950984       1.23741737       0.00000000
Si      -1.15025319      -1.79089002       1.18011025       0.00000000
Si      -1.79906760       0.89886591      -1.53068498       0.00000000
Si      -2.33653986      -0.36082350       2.65152403       0.00000000
Si       0.38848392       2.37276882       2.64565305       0.00000000
Si      -0.28087218      -2.84047101      -2.25634593       0.00000000
Si      -2.12939622      -3.01360113      -0.71020655       0.00000000
Si      -2.73421134       2.64559374      -0.19088036       0.00000000
Si      -3.32275275      -1.04795199      -1.77673824       0.00000000
