10
Lattice="16.28999089631971 0.0 0.0 0.0 16.28999089631971 0.0 0.0 0.0 34.71893929493243" Properties=species:S:1:pos:R:3:initial_magmoms:R:1 pbc="T T T"
Si       1.35638685       1.35767376      -1.35740713       0.00000000
Si      -1.35645201      -1.35897696      -1.35650444       0.00000000
Si       1.35765747      -1.35772263       1.35834454       0.00000000
Si      -1.35764118       1.35824391       1.35806679       0.00000000
Si      -0.00514764      -2.71130760      -2.71415460       0.00000000
Si      -2.71496145      -2.71435383       0.00079854       0.00000000
Si       2.71492398      -2.71461447       0.00010416       0.00000000
Si      -0.00100998      -2.71603170       2.71408516       0.00000000
Si      -2.71501032       2.71533123       0.00034719       0.00000000
Si       2.71518462       0.00001629       2.71519616       0.00000000
