10
Lattice="16.28999089631971 0.0 0.0 0.0 16.28999089631971 0.0 0.0 0.0 34.71893929493243" Properties=species:S:1:pos:R:3:initial_magmoms:R:1 pbc="T T T"
Si      -1.35553977       1.35856971      -1.35910836       0.00000000
Si       1.36132272      -1.35475785      -1.35907364       0.00000000
Si      -1.35941679      -1.34482095       1.38910554       0.00000000
Si       1.34669430       1.38212505       1.38410601       0.00000000
Si      -2.71249677      -2.71107954       0.00524256       0.00000000
Si      -2.71326240       2.71560816       0.00215258       0.00000000
Si      -2.71306692       0.00083079      -2.71595998       0.00000000
Si       2.71497285       2.71448415      -0.00076382       0.00000000
Si       0.00182448      -2.71357191      -2.71627245       0.00000000
Si       2.71722087      -2.71472850       0.00059022       0.00000000
