10
Lattice="16.28999089631971 0.0 0.0 0.0 16.28999089631971 0.0 0.0 0.0 34.71893929493243" Properties=species:S:1:pos:R:3:initial_magmoms:R:1 pbc="T T T"
Si      -1.41410232      -1.53290529       1.31609157       0.00000000
Si      -1.41918480       1.26666153      -1.57655320       0.00000000
Si       1.57126824       1.15724160       1.53898728       0.00000000
Si       1.29057525      -1.43892828      -1.58710776       0.00000000
Si       2.78583435       2.72435589       0.07724968       0.00000000
Si      -2.85441525       2.66118327      -0.10311531       0.00000000
Si       2.59191819      -2.92726413      -0.20654309       0.00000000
Si       0.02769300      -2.61873153       2.96753356       0.00000000
Si      -0.06327036       2.62150083      -2.97406072       0.00000000
Si       2.64999204      -0.09410733      -2.97621330       0.00000000
