10
Lattice="16.28999089631971 0.0 0.0 0.0 16.28999089631971 0.0 0.0 0.0 34.71893929493243" Properties=species:S:1:pos:R:3:initial_magmoms:R:1 pbc="T T T"
Si       0.41238135      -1.59821190       1.68956341       0.00000000
Si      -2.04027363      -1.03338873      -0.66736782       0.00000000
Si       0.01904301       1.86352713       1.50145609       0.00000000
Si       1.26056907      -0.02493999      -2.13243844       0.00000000
Si       0.74699424      -3.46413366       0.35979257       0.00000000
Si      -2.26613448      -0.37400211      -2.87532000       0.00000000
Si      -1.31222466      -3.36851136      -0.77582985       0.00000000
Si      -2.16738450       1.82895975       2.50896555       0.00000000
Si       2.20823982      -0.86565060       2.95815944       0.00000000
Si       1.46473164       1.36909305       3.36638495       0.00000000
