10
Lattice="16.28999089631971 0.0 0.0 0.0 16.28999089631971 0.0 0.0 0.0 34.71893929493243" Properties=species:S:1:pos:R:3:initial_magmoms:R:1 pbc="T T T"
Si       1.37911140       1.88924904       0.07072252       0.00000000
Si       0.74350818      -2.23474365      -0.40822552       0.00000000
Si      -1.44568863       0.49443408      -1.86492887       0.00000000
Si      -1.41682275      -0.12178404       1.97043978       0.00000000
Si      -1.66441446      -2.46777210       1.89128056       0.00000000
Si      -1.05235029      -2.96730495      -1.67682155       0.00000000
Si      -0.00229689       3.37286079       1.37306538       0.00000000
Si      -3.63211614       0.45986670      -0.85741940       0.00000000
Si       0.52228998      -3.42365301       1.57384512       0.00000000
Si      -3.38700051       1.12376565       1.40524985       0.00000000
