10
Lattice="16.28999089631971 0.0 0.0 0.0 16.28999089631971 0.0 0.0 0.0 34.71893929493243" Properties=species:S:1:pos:R:3:initial_magmoms:R:1 pbc="T T T"
Si       1.34190504       1.35229806       1.35122715       0.00000000
Si       1.35734796      -1.35754344      -1.35886532       0.00000000
Si      -1.35677781       1.35757602      -1.35952498       0.00000000
Si      -1.34934957      -1.36660068       1.39535495       0.00000000
Si      -0.02635722       2.65031784       2.76071272       0.00000000
Si       2.70958086       2.71801866       0.00104157       0.00000000
Si      -2.71596654       2.71168227       0.00048607       0.00000000
Si      -0.00027693       2.71379650      -2.71665436       0.00000000
Si       2.71432125      -0.00083079      -2.71634189       0.00000000
Si       2.71295289      -2.71783989      -0.00052078       0.00000000
