10
Lattice="16.28999089631971 0.0 0.0 0.0 16.28999089631971 0.0 0.0 0.0 34.71893929493243" Properties=species:S:1:pos:R:3:initial_magmoms:R:1 pbc="T T T"
Si      -1.63418022      -1.12040991      -1.22703744       0.00000000
Si       1.60318035      -1.69896555      -0.20105749       0.00000000
Si      -1.11294909       0.26223642       2.06445872       0.00000000
Si       0.29506077       2.02352004      -1.22217678       0.00000000
Si      -1.10439684       2.63639871       2.01116512       0.00000000
Si       1.62025227      -1.82759139      -2.59871406       0.00000000
Si      -2.64455118      -2.38625694       0.49686302       0.00000000
Si      -1.81742643       2.22901513      -2.34096051       0.00000000
Si      -3.37860464      -0.50805252       1.73018459       0.00000000
Si      -0.68857830      -1.92402819      -3.24844465       0.00000000
