10
Lattice="16.28999089631971 0.0 0.0 0.0 16.28999089631971 0.0 0.0 0.0 34.71893929493243" Properties=species:S:1:pos:R:3:initial_magmoms:R:1 pbc="T T T"
Si      -1.08717831      -1.55362617       1.52281315       0.00000000
Si       1.53937242       1.00320336       1.59647636       0.00000000
Si      -0.61840098      -0.89407665      -2.28447276       0.00000000
Si      -1.23909885       1.96859763      -1.18054875       0.00000000
Si      -2.61957861       0.60232275      -2.49101585       0.00000000
Si       2.45508219       2.81041337       0.36194514       0.00000000
Si      -2.74818816      -2.65680126       0.19522470       0.00000000
Si      -2.32604910      -0.24391017       3.04978073       0.00000000
Si      -2.80205919       2.66758917       0.42875522       0.00000000
Si       1.19115738       1.66291578      -3.35003232       0.00000000
