10
Lattice="16.28999089631971 0.0 0.0 0.0 16.28999089631971 0.0 0.0 0.0 34.71893929493243" Properties=species:S:1:pos:R:3:initial_magmoms:R:1 pbc="T T T"
Si       0.46480257       2.29240115      -0.13064744       0.00000000
Si      -1.38047976      -1.36627488      -1.31046710       0.00000000
Si      -1.56296034       0.69899154       1.60930398       0.00000000
Si       1.23909885      -1.96859763       1.18054875       0.00000000
Si       0.62069787      -2.86267428      -1.10392401       0.00000000
Si       2.43025623      -0.30568185      -2.16948357       0.00000000
Si       0.11044620       1.67589632       2.94107567       0.00000000
Si       1.95528870       2.51581850       1.65806606       0.00000000
Si      -3.17506761       1.95369132       0.42068962       0.00000000
Si      -2.81207754      -2.74023864       0.17088671       0.00000000
