10
Lattice="16.28999089631971 0.0 0.0 0.0 16.28999089631971 0.0 0.0 0.0 34.71893929493243" Properties=species:S:1:pos:R:3:initial_magmoms:R:1 pbc="T T T"
Si       1.38047976       1.36627488       1.31046710       0.00000000
Si      -1.43159778      -1.37396376       1.48135381       0.00000000
Si       2.00117763      -1.49639940       0.20654309       0.00000000
Si      -1.32680421       1.13015133      -1.87645556       0.00000000
Si      -3.41404191       0.36626436      -0.97549858       0.00000000
Si      -0.18248058       2.06526642       2.91977107       0.00000000
Si      -0.50368680      -0.31407120      -3.57973296       0.00000000
Si       2.61957861      -0.60232275       2.49101585       0.00000000
Si      -3.27958425      -1.91036088      -0.00055550       0.00000000
Si       3.45898602      -1.08087408      -1.61016115       0.00000000
