10
Lattice="16.28999089631971 0.0 0.0 0.0 16.28999089631971 0.0 0.0 0.0 34.71893929493243" Properties=species:S:1:pos:R:3:initial_magmoms:R:1 pbc="T T T"
Si       1.65346758       1.04979276      -1.29155252       0.00000000
Si      -1.23243624       1.49195223       1.37491243       0.00000000
Si       1.49714874      -1.23015564       1.39552854       0.00000000
Si      -0.87690699      -1.93608279      -1.17482880       0.00000000
Si       0.29320371       0.94454307      -3.20844984       0.00000000
Si       3.45787830      -0.64692477      -1.31883579       0.00000000
Si      -2.56257990       0.12755070       2.75836572       0.00000000
Si       0.15035670      -2.58356305       2.75878235       0.00000000
Si       2.74359438      -2.61661709      -0.06007074       0.00000000
Si      -2.72174949      -2.77600496       0.10818080       0.00000000
