10
Lattice="16.28999089631971 0.0 0.0 0.0 16.28999089631971 0.0 0.0 0.0 34.71893929493243" Properties=species:S:1:pos:R:3:initial_magmoms:R:1 pbc="T T T"
Si      -1.35361755       1.35386625      -1.36133037       0.00000000
Si       1.36360332      -1.36151778      -1.35834454       0.00000000
Si      -1.36767582      -1.36572060       1.35018558       0.00000000
Si       1.36148562       1.37998238       1.34924817       0.00000000
Si       0.07149681      -2.61811209       2.67151971       0.00000000
Si      -2.70558981       2.70750335      -0.00388852       0.00000000
Si       2.65121379       0.07937167       2.76769123       0.00000000
Si      -2.70985779      -0.00422216      -2.71769593       0.00000000
Si      -2.70958086      -2.71801866      -0.00104157       0.00000000
Si       0.00498474       2.71123376      -2.71734874       0.00000000
