10
Lattice="16.28999089631971 0.0 0.0 0.0 16.28999089631971 0.0 0.0 0.0 34.71893929493243" Properties=species:S:1:pos:R:3:initial_magmoms:R:1 pbc="T T T"
Si       1.61210727      -1.25469978       1.18861435       0.00000000
Si       1.61539785       1.67750347      -0.57449461       0.00000000
Si      -1.04272290       1.72321321       1.30572175       0.00000000
Si      -1.87495782      -1.22321773      -0.97772060       0.00000000
Si      -1.93909644      -0.13908891       2.47126219       0.00000000
Si      -2.64571429      -1.97851728       1.13241314       0.00000000
Si       3.63987018       0.33870983      -0.55133706       0.00000000
Si       0.82217259       2.70077612       2.39180091       0.00000000
Si       3.17506761      -1.95369132      -0.42068962       0.00000000
Si       1.39869198       2.08244030      -2.83174771       0.00000000
