10
Lattice="16.28999089631971 0.0 0.0 0.0 16.28999089631971 0.0 0.0 0.0 34.71893929493243" Properties=species:S:1:pos:R:3:initial_magmoms:R:1 pbc="T T T"
Si       0.07082892       2.11470264      -1.40233346       0.00000000
Si       1.27829259       2.09937375       0.72621646       0.00000000
Si       2.66978439       0.24503418       0.32170587       0.00000000
Si      -0.66516957       0.10184508      -2.64898711       0.00000000
Si      -1.67847273      -1.75658491      -1.51732265       0.00000000
Si      -0.35574102      -1.68299646       2.33585682       0.00000000
Si      -2.06296560      -1.97304317       0.76562248       0.00000000
Si       1.93036500      -1.43304596       1.83909796       0.00000000
Si      -0.11008782       2.33469909       2.57277900       0.00000000
Si      -0.91243548       0.29703186       3.50543438       0.00000000
