10
Lattice="16.28999089631971 0.0 0.0 0.0 16.28999089631971 0.0 0.0 0.0 34.71893929493243" Properties=species:S:1:pos:R:3:initial_magmoms:R:1 pbc="T T T"
Si      -0.31157883       2.01559428       1.09486236       0.00000000
Si      -1.52283807       0.42127569      -1.69872921       0.00000000
Si       1.93748373      -0.45955719      -1.29890568       0.00000000
Si      -0.87879663      -1.56061132       1.59051022       0.00000000
Si      -0.96614361      -1.55875263      -2.86830677       0.00000000
Si       1.54764774       2.04845121       2.48743980       0.00000000
Si      -0.03339450       3.54687057      -0.65306361       0.00000000
Si      -2.63567313       1.93054419       1.52919654       0.00000000
Si      -0.72049041       2.45894292      -2.63138460       0.00000000
Si      -3.48514776       1.35610992      -0.69917039       0.00000000
