10
Lattice="16.28999089631971 0.0 0.0 0.0 16.28999089631971 0.0 0.0 0.0 34.71893929493243" Properties=species:S:1:pos:R:3:initial_magmoms:R:1 pbc="T T T"
Si       1.52283807      -0.42127569       1.69872921       0.00000000
Si       0.55669446      -1.98002832      -1.16957756       0.00000000
Si       0.80234766       2.03766723      -0.93265539       0.00000000
Si      -1.96230969       0.93483423       0.99955882       0.00000000
Si       1.21125924       1.59431859       2.79359157       0.00000000
Si       3.46032180      -0.88083288       0.39982353       0.00000000
Si       1.48944357       3.12559488       1.04566560       0.00000000
Si       0.91243548      -0.29703186      -3.50543438       0.00000000
Si      -3.60740421      -0.64562157       0.36906253       0.00000000
Si       2.84280048      -1.73007782      -1.66633642       0.00000000
