10
Lattice="16.28999089631971 0.0 0.0 0.0 16.28999089631971 0.0 0.0 0.0 34.71893929493243" Properties=species:S:1:pos:R:3:initial_magmoms:R:1 pbc="T T T"
Si       0.39978918      -0.37743671      -2.25385064       0.00000000
Si      -0.91570977      -1.80721001       1.23453122       0.00000000
Si      -1.73889234       1.67400275       0.11557216       0.00000000
Si       1.88160903       0.99346846       1.23033022       0.00000000
Si       0.15783381       2.33949812      -2.39224041       0.00000000
Si      -2.07777321      -0.36037259       2.70003930       0.00000000
Si       0.63516339       2.37992990       2.68592951       0.00000000
Si      -2.45508219      -2.81041337      -0.36194514       0.00000000
Si       2.60814303      -1.05321107      -2.61839971       0.00000000
Si      -3.22937847       1.45058540      -1.67314134       0.00000000
