10
Lattice="16.28999089631971 0.0 0.0 0.0 16.28999089631971 0.0 0.0 0.0 34.71893929493243" Properties=species:S:1:pos:R:3:initial_magmoms:R:1 pbc="T T T"
Si      -1.33014366      -1.36440153       1.38345329       0.00000000
Si       1.23243624      -1.49195223      -1.37491243       0.00000000
Si       1.38313503       1.35338949       1.38255060       0.00000000
Si      -1.52489061       1.28425473      -1.46104322       0.00000000
Si      -2.68517844      -2.72280834       0.01858853       0.00000000
Si      -2.71117728       2.71432125       0.01037055       0.00000000
Si       2.72551248       2.70117522       0.00820062       0.00000000
Si      -2.69192250      -0.00754227       2.73971469       0.00000000
Si       0.02332728       2.70500337       2.74235333       0.00000000
Si       2.72958498      -2.72210787       0.02061612       0.00000000
