10
Lattice="16.28999089631971 0.0 0.0 0.0 16.28999089631971 0.0 0.0 0.0 34.71893929493243" Properties=species:S:1:pos:R:3:initial_magmoms:R:1 pbc="T T T"
Si      -0.10252926      -1.15590582       2.01227613       0.00000000
Si      -0.52530363      -1.69114635      -1.56992187       0.00000000
Si       2.34432648       0.36460278      -0.15699913       0.00000000
Si      -1.73687238       1.61505576       0.23709577       0.00000000
Si      -2.76001470      -1.19980737      -2.17319850       0.00000000
Si      -3.17467665       1.07647578      -1.61415383       0.00000000
Si       0.93346587      -3.20878791       1.68074479       0.00000000
Si       0.08399124      -3.78322218      -0.54762214       0.00000000
Si      -0.92331720       3.67218954      -0.56473858       0.00000000
Si       0.83305431       0.05450634       3.81804389       0.00000000
