10
Lattice="16.28999089631971 0.0 0.0 0.0 16.28999089631971 0.0 0.0 0.0 34.71893929493243" Properties=species:S:1:pos:R:3:initial_magmoms:R:1 pbc="T T T"
Si       0.10252926       1.15590582      -2.01227613       0.00000000
Si       1.03599513      -2.05288209      -0.33153134       0.00000000
Si      -2.14791795      -0.66823209       0.71705065       0.00000000
Si       0.93558357       1.21041216       1.80576776       0.00000000
Si      -2.48253084       1.19768967       2.04682149       0.00000000
Si       2.44685574       1.52050860      -2.16927526       0.00000000
Si       0.38389014      -3.23164278       1.60134253       0.00000000
Si      -0.42277437      -0.53524053      -3.58219800       0.00000000
Si       0.18652050      -2.62731636      -2.55989826       0.00000000
Si      -1.63434312       2.77096158      -1.77518036       0.00000000
