10
Lattice="16.28999089631971 0.0 0.0 0.0 16.28999089631971 0.0 0.0 0.0 34.71893929493243" Properties=species:S:1:pos:R:3:initial_magmoms:R:1 pbc="T T T"
Si       1.36754550       1.43203761      -1.21596209       0.00000000
Si      -1.00349658      -1.61235162      -1.48013865       0.00000000
Si       1.31988096       0.69478479       1.98582028       0.00000000
Si      -3.04694676       0.05538600       0.03145538       0.00000000
Si      -0.31718259       3.04966719      -0.63528751       0.00000000
Si      -0.31065030       2.68071498       1.97651560       0.00000000
Si      -2.44973907       1.96035489      -1.36775338       0.00000000
Si      -1.98363330       0.14436198      -2.83834431       0.00000000
Si      -1.92832875      -2.95512003       0.19012102       0.00000000
Si      -0.56806488      -2.84987034       2.10701834       0.00000000
