10
Lattice="16.28999089631971 0.0 0.0 0.0 16.28999089631971 0.0 0.0 0.0 34.71893929493243" Properties=species:S:1:pos:R:3:initial_magmoms:R:1 pbc="T T T"
Si       1.26600993       1.84601538       0.47467760       0.00000000
Si       0.00345348       0.19126089      -2.31398388       0.00000000
Si       0.81800235      -2.07886464       0.75128355       0.00000000
Si      -1.21705848       1.85735322       1.10524333       0.00000000
Si       2.08098234      -0.86643252      -2.31554623       0.00000000
Si      -1.25245665       0.74446929       3.14928731       0.00000000
Si      -3.33312948       1.36260963       0.10065026       0.00000000
Si       2.26680237      -2.79495675      -0.91310861       0.00000000
Si       1.87406676      -1.74029328       2.81786013       0.00000000
Si       1.06681581       0.32576742       3.66628732       0.00000000
