10
Lattice="16.28999089631971 0.0 0.0 0.0 16.28999089631971 0.0 0.0 0.0 34.71893929493243" Properties=species:S:1:pos:R:3:initial_magmoms:R:1 pbc="T T T"
Si      -1.35659862      -1.35632169      -1.35643500       0.00000000
Si       1.35866745       1.35830907      -1.35574062       0.00000000
Si       1.35923760      -1.35360126       1.36546193       0.00000000
Si      -1.35754344       1.35927018       1.36445508       0.00000000
Si      -2.71345136      -2.71378368       0.00180539       0.00000000
Si      -2.71395147       0.00167787      -2.71328662       0.00000000
Si       0.00099369      -2.71376739      -2.71408516       0.00000000
Si       2.71593396       0.00141723      -2.71398100       0.00000000
Si       0.00100998       2.71603170      -2.71408516       0.00000000
Si       2.71681362      -2.71484253       0.00062494       0.00000000
