10
Lattice="16.28999089631971 0.0 0.0 0.0 16.28999089631971 0.0 0.0 0.0 34.71893929493243" Properties=species:S:1:pos:R:3:initial_magmoms:R:1 pbc="T T T"
Si       1.35387848      -1.35288115      -1.35601837       0.00000000
Si      -1.35669837      -1.35666043       1.35671275       0.00000000
Si       1.35793306       1.35867799       1.35629612       0.00000000
Si      -1.35609564       1.36167861      -1.35817095       0.00000000
Si      -0.02017390      -2.68998064      -2.69746866       0.00000000
Si       2.72299271       0.01534853      -2.67317581       0.00000000
Si      -0.01751814       2.69556571      -2.73042737       0.00000000
Si       0.00111176      -2.71439935       2.71325190       0.00000000
Si       2.71507577      -2.71314502      -0.00121516       0.00000000
Si      -2.71463277       0.00168900       2.71366853       0.00000000
