10
Lattice="16.28999089631971 0.0 0.0 0.0 16.28999089631971 0.0 0.0 0.0 34.71893929493243" Properties=species:S:1:pos:R:3:initial_magmoms:R:1 pbc="T T T"
Si      -1.35601218      -1.35749457       1.35806679       0.00000000
Si      -1.35496962       1.36170295      -1.35733769       0.00000000
Si       1.35860229       1.35808331       1.35792791       0.00000000
Si       1.35832536      -1.35754344      -1.36435092       0.00000000
Si      -2.72111418      -0.02519214      -2.70648171       0.00000000
Si      -2.71459818       2.71353023       0.00003472       0.00000000
Si      -2.71347417      -0.00018266       2.71474482       0.00000000
Si      -2.71423980      -2.71432125       0.00065966       0.00000000
Si       0.00112401      -2.71480995       2.71505729       0.00000000
Si       2.71599912       2.71411667      -0.00034719       0.00000000
