10
Lattice="16.28999089631971 0.0 0.0 0.0 16.28999089631971 0.0 0.0 0.0 34.71893929493243" Properties=species:S:1:pos:R:3:initial_magmoms:R:1 pbc="T T T"
Si       1.34156295       1.35529542      -1.37386391       0.00000000
Si      -1.30860828       1.45930707       1.29859321       0.00000000
Si      -1.37673306      -1.35843939      -1.37448886       0.00000000
Si       1.48501269      -1.33631757       1.38188399       0.00000000
Si      -2.25940671       0.22289607       2.99232289       0.00000000
Si       2.69078220       2.72054403       0.01669982       0.00000000
Si       2.70783783      -2.71969695      -0.02642113       0.00000000
Si       2.69812899       0.00021177      -2.73345834       0.00000000
Si      -2.74501161      -2.69079849       0.01038097       0.00000000
Si      -0.01650177       2.71590138      -2.73127104       0.00000000
