10
Lattice="16.28999089631971 0.0 0.0 0.0 16.28999089631971 0.0 0.0 0.0 34.71893929493243" Properties=species:S:1:pos:R:3:initial_magmoms:R:1 pbc="T T T"
Si       0.35174997       2.14146711       0.75114467       0.00000000
Si      -1.45780839      -0.41552532       1.81670423       0.00000000
Si       2.26408194      -0.83715939      -0.26303083       0.00000000
Si      -1.49265270       0.77038668      -1.82451600       0.00000000
Si      -0.11124441      -0.71322507      -3.12685886       0.00000000
Si      -1.75627377      -2.64621276       1.03722889       0.00000000
Si       2.20802805      -1.13192694      -2.60985884       0.00000000
Si       0.52548282      -3.53092266       0.98719887       0.00000000
Si      -3.45898602       1.08087408       1.61016115       0.00000000
Si       0.32694030       3.88084882      -0.79523775       0.00000000
