10
Lattice="16.28999089631971 0.0 0.0 0.0 16.28999089631971 0.0 0.0 0.0 34.71893929493243" Properties=species:S:1:pos:R:3:initial_magmoms:R:1 pbc="T T T"
Si       0.18067239      -1.87186761       1.42142889       0.00000000
Si      -0.83653548       1.64952540       1.49638712       0.00000000
Si       2.04840234      -0.20931021      -1.25047274       0.00000000
Si      -0.87703568      -2.73841416      -1.28362934       0.00000000
Si       0.68359356      -1.55657466      -2.69742006       0.00000000
Si      -2.12368562      -2.52793107       0.92765586       0.00000000
Si      -1.10030642       3.10919085      -1.25495148       0.00000000
Si      -2.10327425       1.34149779      -2.65506293       0.00000000
Si      -3.20084558       1.42648272       1.09399439       0.00000000
Si       3.49019766      -1.29513645       0.40096925       0.00000000
