10
Lattice="16.28999089631971 0.0 0.0 0.0 16.28999089631971 0.0 0.0 0.0 34.71893929493243" Properties=species:S:1:pos:R:3:initial_magmoms:R:1 pbc="T T T"
Si      -1.35723393       1.35718995       1.35716410       0.00000000
Si       1.35739683       1.35603336      -1.35827510       0.00000000
Si       1.35793440      -1.35757054       1.35726825       0.00000000
Si      -1.35860229      -1.35808331      -1.35792791       0.00000000
Si      -2.71407690       2.71390260       0.00003472       0.00000000
Si      -0.00024435       2.71243650      -2.71571695       0.00000000
Si      -2.71357191       0.00361964      -2.71526560       0.00000000
Si      -2.71583622      -0.00017756       2.71318247       0.00000000
Si       0.00130320       2.71421211       2.71550864       0.00000000
Si       2.71534752       2.71439130      -0.00017359       0.00000000
