10
Lattice="16.28999089631971 0.0 0.0 0.0 16.28999089631971 0.0 0.0 0.0 34.71893929493243" Properties=species:S:1:pos:R:3:initial_magmoms:R:1 pbc="T T T"
Si       1.35721836       1.35576294      -1.35806679       0.00000000
Si      -1.35816246      -1.35889981      -1.35733769       0.00000000
Si      -1.36075257       1.35768516       1.35650444       0.00000000
Si       1.35873261      -1.36124461       1.36296216       0.00000000
Si      -2.71682991       0.02460930       2.70915507       0.00000000
Si      -2.71479366       2.71288284       0.00090269       0.00000000
Si      -0.00074934       2.71306203      -2.71477954       0.00000000
Si       2.71488881       2.71301316       0.00069438       0.00000000
Si       2.71440337      -0.00191082      -2.71471010       0.00000000
Si      -2.71609686      -0.00132926      -2.71460594       0.00000000
