10
Lattice="16.28999089631971 0.0 0.0 0.0 16.28999089631971 0.0 0.0 0.0 34.71893929493243" Properties=species:S:1:pos:R:3:initial_magmoms:R:1 pbc="T T T"
Si      -0.57166497       1.52917814       1.62571524       0.00000000
Si      -1.33592661      -1.34200034      -1.35903892       0.00000000
Si       1.42172604       1.31004506      -1.34282517       0.00000000
Si      -0.09770742      -1.85958888       2.14049324       0.00000000
Si      -1.31108436      -0.14890200       3.14310733       0.00000000
Si       2.25370588      -1.69354491       2.22899187       0.00000000
Si      -3.24144936       1.28414396       1.30400937       0.00000000
Si       2.60171730       2.75037428       0.13161957       0.00000000
Si      -2.62565478      -0.04138963      -2.77748198       0.00000000
Si       0.08029341       2.65771676      -2.75262320       0.00000000
