10
Lattice="16.28999089631971 0.0 0.0 0.0 16.28999089631971 0.0 0.0 0.0 34.71893929493243" Properties=species:S:1:pos:R:3:initial_magmoms:R:1 pbc="T T T"
Si       0.61752132       0.84924494       2.06615995       0.00000000
Si       1.21337694      -1.71068688      -1.00261409       0.00000000
Si      -2.28610602      -0.24995050       0.49675886       0.00000000
Si       0.73941939       1.67808014      -1.51739209       0.00000000
Si      -1.93036500       1.43304596      -1.83909796       0.00000000
Si      -0.07508061      -3.27641652       0.45974845       0.00000000
Si       1.31108436       0.14890200      -3.14310733       0.00000000
Si       2.46668067       2.08590029       1.33060409       0.00000000
Si      -2.36773521      -2.64398985       0.87863269       0.00000000
Si      -2.84280048       1.73007782       1.66633642       0.00000000
