10
Lattice="16.28999089631971 0.0 0.0 0.0 16.28999089631971 0.0 0.0 0.0 34.71893929493243" Properties=species:S:1:pos:R:3:initial_magmoms:R:1 pbc="T T T"
Si       1.76399753       0.64573560       1.46573028       0.00000000
Si      -0.87558750      -1.27808896       1.81045482       0.00000000
Si       1.69183935       0.25443351      -1.67779368       0.00000000
Si      -1.86984765       1.31092146      -0.81912439       0.00000000
Si       0.43284715      -0.02083491       3.40606872       0.00000000
Si      -1.74285081       0.60975099      -3.08082152       0.00000000
Si       1.45609535       2.97831699       1.40799265       0.00000000
Si       0.49468399      -0.12417867      -3.67718907       0.00000000
Si      -0.13468572      -3.53260772       1.63047174       0.00000000
Si      -1.39957164       3.60010629      -0.74770749       0.00000000
