10
Lattice="16.28999089631971 0.0 0.0 0.0 16.28999089631971 0.0 0.0 0.0 34.71893929493243" Properties=species:S:1:pos:R:3:initial_magmoms:R:1 pbc="T T T"
Si       0.47027601       2.28918483       0.07141690       0.00000000
Si       0.12699684      -0.70117047      -2.26169713       0.00000000
Si       1.86984765      -1.31092146       0.81912439       0.00000000
Si      -2.39888169       0.05235606       0.80096638       0.00000000
Si      -0.97516827       2.95130817      -1.70022213       0.00000000
Si      -0.17498718       2.75799474       2.29520092       0.00000000
Si      -0.45564759       1.33074639      -3.32989533       0.00000000
Si      -1.39582494      -2.53660875      -2.38689369       0.00000000
Si      -2.11103739       1.45381734       2.74793614       0.00000000
Si       3.56168700      -1.05648795      -0.85866929       0.00000000
