10
Lattice="16.28999089631971 0.0 0.0 0.0 16.28999089631971 0.0 0.0 0.0 34.71893929493243" Properties=species:S:1:pos:R:3:initial_magmoms:R:1 pbc="T T T"
Si       1.35404109      -1.35519768       1.35560174       0.00000000
Si       1.35625653       1.35847197      -1.35775432       0.00000000
Si      -1.35790182       1.35666378       1.35879589       0.00000000
Si      -1.35853713      -1.35702216      -1.35834454       0.00000000
Si      -0.00203625      -2.68827354       2.70825237       0.00000000
Si       0.00864999       2.71622718       2.70023229       0.00000000
Si       2.71479366      -2.71288284      -0.00090269       0.00000000
Si       2.71327869       2.71590138       0.00034719       0.00000000
Si      -0.00130320      -2.71421211      -2.71550864       0.00000000
Si       2.71404432       0.00017919      -2.71568223       0.00000000
