10
Lattice="16.28999089631971 0.0 0.0 0.0 16.28999089631971 0.0 0.0 0.0 34.71893929493243" Properties=species:S:1:pos:R:3:initial_magmoms:R:1 pbc="T T T"
Si      -1.35523026       1.35500220       1.35456017       0.00000000
Si      -1.35702216      -1.35742941      -1.35810151       0.00000000
Si       1.35804922       1.35720135      -1.35834454       0.00000000
Si       1.35506736      -1.35607734       1.36289272       0.00000000
Si      -2.70462870       0.00032580       2.69988510       0.00000000
Si       0.01114236       2.70871749       2.70516239       0.00000000
Si      -2.71251306       2.71389771      -0.00118044       0.00000000
Si      -2.71327869      -2.71590138      -0.00034719       0.00000000
Si      -2.71410948      -0.00011403      -2.71585583       0.00000000
Si       0.00061902       2.71451673      -2.71599470       0.00000000
