10
Lattice="16.28999089631971 0.0 0.0 0.0 16.28999089631971 0.0 0.0 0.0 34.71893929493243" Properties=species:S:1:pos:R:3:initial_magmoms:R:1 pbc="T T T"
Si      -1.27563732       1.41516117       1.34213079       0.00000000
Si       1.34939844       1.35467640      -1.34532493       0.00000000
Si       1.34205165      -1.18687311       1.51749625       0.00000000
Si      -1.36655181      -1.35956340      -1.34143641       0.00000000
Si      -0.14890689       0.37248714       3.26635963       0.00000000
Si      -0.55565190      -1.96426449       2.68717797       0.00000000
Si      -2.39391324      -0.26976240       2.65895145       0.00000000
Si       2.14653330       0.86284872       2.89281836       0.00000000
Si       2.69526195      -2.70539433       0.03287885       0.00000000
Si       2.70462870      -0.00032580      -2.69988510       0.00000000
