10
Lattice="16.28999089631971 0.0 0.0 0.0 16.28999089631971 0.0 0.0 0.0 34.71893929493243" Properties=species:S:1:pos:R:3:initial_magmoms:R:1 pbc="T T T"
Si      -2.27954115      -0.45657612       0.27202304       0.00000000
Si       1.18584684       1.90014705       0.78853699       0.00000000
Si       1.00567944      -1.06754886       1.93554723       0.00000000
Si       0.19016946      -0.45203121      -2.39949667       0.00000000
Si      -2.01339513       0.91649169      -2.13611865       0.00000000
Si       1.46748465       1.06184736       2.95368069       0.00000000
Si       3.23244818       1.34322453      -0.36204930       0.00000000
Si       2.62158947      -2.29447908       0.72899398       0.00000000
Si       0.66280752       1.75192434      -3.07384301       0.00000000
Si       1.54049643      -3.22634853      -1.10937489       0.00000000
