10
Lattice="16.28999089631971 0.0 0.0 0.0 16.28999089631971 0.0 0.0 0.0 34.71893929493243" Properties=species:S:1:pos:R:3:initial_magmoms:R:1 pbc="T T T"
Si      -0.68183424       2.19532185       1.21186525       0.00000000
Si       2.20356459      -1.36852290      -0.26337802       0.00000000
Si      -0.95324193      -2.46099546       0.42982071       0.00000000
Si      -0.26614602      -1.37306781       2.40814169       0.00000000
Si       2.67620265       0.83543265      -0.93772436       0.00000000
Si      -0.36558018      -0.34424028      -2.96611008       0.00000000
Si       2.01339513      -0.91649169       2.13611865       0.00000000
Si       0.43513848      -2.69632080      -1.41674183       0.00000000
Si      -1.45756404       0.58399650       2.75265792       0.00000000
Si       1.45072224       2.78656740       0.43610484       0.00000000
