10
Lattice="16.28999089631971 0.0 0.0 0.0 16.28999089631971 0.0 0.0 0.0 34.71893929493243" Properties=species:S:1:pos:R:3:initial_magmoms:R:1 pbc="T T T"
Si       1.61591003      -1.22693022      -1.20655325       0.00000000
Si       0.46180521       2.12939622       1.01813346       0.00000000
Si      -1.70417835      -0.88744662       1.47697922       0.00000000
Si      -1.00567944       1.06754886      -1.93554723       0.00000000
Si       0.18016740       2.96769591      -1.14701024       0.00000000
Si      -3.56340492      -0.92030355       0.08440179       0.00000000
Si      -3.28522059       0.61097274      -1.66352419       0.00000000
Si      -1.63668888       2.71019988       1.97759189       0.00000000
Si       0.53481699      -2.15879967      -3.04492212       0.00000000
Si       2.57372945      -2.75908617       0.28643141       0.00000000
