10
Lattice="16.28999089631971 0.0 0.0 0.0 16.28999089631971 0.0 0.0 0.0 34.71893929493243" Properties=species:S:1:pos:R:3:initial_magmoms:R:1 pbc="T T T"
Si      -0.62043723       2.24951868      -0.24362293       0.00000000
Si       0.64526319      -0.46880991      -2.22378402       0.00000000
Si      -1.93605021      -1.30417740       0.45273522       0.00000000
Si       1.86057864      -0.34578783       1.46093906       0.00000000
Si       0.17498718      -2.75799474      -2.29520092       0.00000000
Si       3.50093018      -1.09059921      -0.06808388       0.00000000
Si       2.96239744      -0.11647350      -2.18031589       0.00000000
Si      -2.69210169       2.13737832      -1.43191401       0.00000000
Si      -3.46807584       0.17156628       1.54422984       0.00000000
Si      -2.22389451      -2.70563868      -1.49423454       0.00000000
