10
Lattice="16.28999089631971 0.0 0.0 0.0 16.28999089631971 0.0 0.0 0.0 34.71893929493243" Properties=species:S:1:pos:R:3:initial_magmoms:R:1 pbc="T T T"
Si      -0.47027601      -2.28918483      -0.07141690       0.00000000
Si       2.31713425       0.35233641       0.04346814       0.00000000
Si      -0.64526319       0.46880991       2.22378402       0.00000000
Si      -1.44544428       0.66212334      -1.77163902       0.00000000
Si      -1.26570042       2.71832859       1.98016109       0.00000000
Si       2.85566699      -0.62178930       2.15570015       0.00000000
Si      -0.92592360      -0.95843844      -3.40131223       0.00000000
Si      -2.86915770      -2.23682877       0.72954948       0.00000000
Si       2.54113641       2.68117110       0.59421498       0.00000000
Si      -0.34327917      -2.99035530      -2.33311402       0.00000000
