10
Lattice="16.28999089631971 0.0 0.0 0.0 16.28999089631971 0.0 0.0 0.0 34.71893929493243" Properties=species:S:1:pos:R:3:initial_magmoms:R:1 pbc="T T T"
Si       2.23207209      -0.37686915       0.57418214       0.00000000
Si      -0.79565247       2.20302702       0.12988362       0.00000000
Si      -1.40651118      -1.43467659       1.22092690       0.00000000
Si       0.01622484      -0.68662350      -2.25447558       0.00000000
Si      -2.48760422      -2.36654604      -0.61744196       0.00000000
Si       1.18302867       3.26168154       0.75968554       0.00000000
Si       2.13693849       0.26717229       2.85917569       0.00000000
Si       2.61879669      -2.53229679      -0.36934028       0.00000000
Si      -1.00098303       2.83476951      -2.17951735       0.00000000
Si      -2.28813317      -1.34268696      -2.74824861       0.00000000
