10
Lattice="16.28999089631971 0.0 0.0 0.0 16.28999089631971 0.0 0.0 0.0 34.71893929493243" Properties=species:S:1:pos:R:3:initial_magmoms:R:1 pbc="T T T"
Si       1.33663850       1.38170151      -1.33853390       0.00000000
Si       1.35570267      -1.35656604       1.35820566       0.00000000
Si      -1.35721764       1.35539316       1.35813623       0.00000000
Si      -1.36067112      -1.36314720      -1.35960137       0.00000000
Si       2.65277178       0.01822851      -2.64774764       0.00000000
Si       2.71427142      -2.71086777      -0.00260392       0.00000000
Si      -2.71505430      -2.71347417      -0.00041663       0.00000000
Si       2.71069088       2.71880100       0.00291639       0.00000000
Si      -0.00055386      -2.71441899       2.71519616       0.00000000
Si       2.71468193       0.00043983       2.71509201       0.00000000
