10
Lattice="16.28999089631971 0.0 0.0 0.0 16.28999089631971 0.0 0.0 0.0 34.71893929493243" Properties=species:S:1:pos:R:3:initial_magmoms:R:1 pbc="T T T"
Si       1.35438318       1.35032697      -1.35918474       0.00000000
Si      -1.35853713       1.35461124       1.35830982       0.00000000
Si       1.35770634      -1.35824391       1.35848342       0.00000000
Si      -1.37155284      -1.36526490      -1.37518324       0.00000000
Si      -2.71393029      -2.71305063      -0.00083326       0.00000000
Si       2.57707800      -0.04696407      -2.84327788       0.00000000
Si       2.71417464      -2.71389771      -0.00013888       0.00000000
Si       2.71505430       2.71347417       0.00041663       0.00000000
Si      -0.00026064       2.71332756       2.71599470       0.00000000
Si       2.71450044      -0.00094482       2.71561279       0.00000000
