10
Lattice="16.28999089631971 0.0 0.0 0.0 16.28999089631971 0.0 0.0 0.0 34.71893929493243" Properties=species:S:1:pos:R:3:initial_magmoms:R:1 pbc="T T T"
Si      -1.35661491       1.35687555       1.35699050       0.00000000
Si       1.35625653       1.35785295      -1.35699050       0.00000000
Si      -1.35679410      -1.35729909      -1.35712938       0.00000000
Si       1.35743020      -1.35731538       1.35765016       0.00000000
Si      -2.71313208      -0.00061902       2.71481426       0.00000000
Si       0.00081450       2.71410948       2.71411988       0.00000000
Si      -0.00032580      -2.71295289      -2.71575167       0.00000000
Si      -2.71476108       2.71427238       0.00038191       0.00000000
Si      -2.71472850      -2.71463076       0.00013888       0.00000000
Si       0.00055386       2.71441899      -2.71519616       0.00000000
