10
Lattice="16.28999089631971 0.0 0.0 0.0 16.28999089631971 0.0 0.0 0.0 34.71893929493243" Properties=species:S:1:pos:R:3:initial_magmoms:R:1 pbc="T T T"
Si       1.35661491      -1.35687555      -1.35699050       0.00000000
Si       1.35742941       1.35723393       1.35712938       0.00000000
Si      -1.35651717      -1.35749457       1.35782376       0.00000000
Si      -1.35814617       1.35739683      -1.35660859       0.00000000
Si       2.71388142       0.00040725       2.71293943       0.00000000
Si       2.71287144       0.00097740      -2.71398100       0.00000000
Si      -0.00004887       2.71293660      -2.71405044       0.00000000
Si       2.71404511      -2.71419093       0.00065966       0.00000000
Si      -0.00017919      -2.71417464      -2.71411988       0.00000000
Si       0.00086337       2.71231758       2.71672380       0.00000000
