10
Lattice="16.28999089631971 0.0 0.0 0.0 16.28999089631971 0.0 0.0 0.0 34.71893929493243" Properties=species:S:1:pos:R:3:initial_magmoms:R:1 pbc="T T T"
Si      -1.24818867       0.45051624      -1.97901536       0.00000000
Si       2.08718298      -1.19596293      -0.12068310       0.00000000
Si      -1.71965385      -1.15880544       1.26526301       0.00000000
Si       0.87447978       2.11092336       0.83735185       0.00000000
Si       3.06172898      -0.75551391       2.04036376       0.00000000
Si      -3.52373877       0.66888369      -1.27998385       0.00000000
Si      -1.09921662      -3.40832412       1.50888594       0.00000000
Si       3.04022618       1.68476067       1.82930721       0.00000000
Si      -0.45395343      -3.87713403      -0.71489808       0.00000000
Si      -2.19625038      -0.19236861       3.31729235       0.00000000
