10
Lattice="16.28999089631971 0.0 0.0 0.0 16.28999089631971 0.0 0.0 0.0 34.71893929493243" Properties=species:S:1:pos:R:3:initial_magmoms:R:1 pbc="T T T"
Si       2.06701271       0.03386691       1.14968360       0.00000000
Si      -0.74090178       2.25451875       0.17998308       0.00000000
Si       0.14266782      -1.09107162      -2.13150103       0.00000000
Si      -1.01362896      -1.98741258       0.96341638       0.00000000
Si       0.06354729      -3.16921950      -0.82592931       0.00000000
Si      -3.18247956      -1.17928197       1.12735931       0.00000000
Si       2.20147037      -2.24275833       2.12462668       0.00000000
Si       1.81150894       1.76435102       2.87861830       0.00000000
Si       0.13468572       3.53260772      -1.63047174       0.00000000
Si       0.56753287       3.51177281       1.77559699       0.00000000
