10
Lattice="16.28999089631971 0.0 0.0 0.0 16.28999089631971 0.0 0.0 0.0 34.71893929493243" Properties=species:S:1:pos:R:3:initial_magmoms:R:1 pbc="T T T"
Si      -2.20835385       0.67577436       0.36454907       0.00000000
Si      -0.05634711      -2.00176407      -1.23238416       0.00000000
Si       0.07830603       1.66973870      -1.67977266       0.00000000
Si       2.38523067       1.43203665      -2.17976038       0.00000000
Si       1.20098025      -2.31876747       2.58402794       0.00000000
Si       2.11250349      -2.80989468      -1.39632708       0.00000000
Si      -2.60814303       1.05321107       2.61839971       0.00000000
Si      -0.12491172       3.84506621      -0.33427413       0.00000000
Si       3.12613245      -0.82248210      -2.35974347       0.00000000
Si      -3.87206784      -0.09428652      -1.09357776       0.00000000
