10
Lattice="16.28999089631971 0.0 0.0 0.0 16.28999089631971 0.0 0.0 0.0 34.71893929493243" Properties=species:S:1:pos:R:3:initial_magmoms:R:1 pbc="T T T"
Si       1.94531922      -0.62701839      -1.32077863       0.00000000
Si      -1.20743109      -1.44651942       1.61097500       0.00000000
Si       1.46469906       1.40786325       1.64387121       0.00000000
Si      -1.82778850      -0.18774225      -2.14045852       0.00000000
Si       3.46900437       1.31979951      -1.07472537       0.00000000
Si      -2.48488379       0.04383639       3.08598913       0.00000000
Si       2.53386063       3.06652734       0.26507925       0.00000000
Si      -2.14947039      -3.37364271       0.32430979       0.00000000
Si       1.47805686      -0.56917260      -3.71284544       0.00000000
Si       3.13867575      -2.59266753      -0.25424693       0.00000000
