10
Lattice="16.28999089631971 0.0 0.0 0.0 16.28999089631971 0.0 0.0 0.0 34.71893929493243" Properties=species:S:1:pos:R:3:initial_magmoms:R:1 pbc="T T T"
Si       1.70839583       0.87558750      -1.41472813       0.00000000
Si      -1.00296783      -1.76769306      -1.40011145       0.00000000
Si      -1.68459030       1.86049719       0.01076288       0.00000000
Si       0.26377094      -1.45966545       2.75133860       0.00000000
Si       1.16222471       0.76939299       2.87084126       0.00000000
Si      -0.64470770       2.24909514       2.23569263       0.00000000
Si       1.10030642      -3.10919085       1.25495148       0.00000000
Si      -2.10053916      -1.68270813       2.34894587       0.00000000
Si       0.42453695       2.19945951      -2.91774657       0.00000000
Si      -2.84688180      -2.37201948      -0.05298113       0.00000000
