10
Lattice="16.28999089631971 0.0 0.0 0.0 16.28999089631971 0.0 0.0 0.0 34.71893929493243" Properties=species:S:1:pos:R:3:initial_magmoms:R:1 pbc="T T T"
Si       1.35699610       1.35633798      -1.35792791       0.00000000
Si      -1.35718501       1.35767376       1.35664331       0.00000000
Si       1.35781060      -1.35789208       1.35719881       0.00000000
Si      -1.35793306      -1.35867799      -1.35629612       0.00000000
Si      -0.00405458      -2.71155914      -2.71231449       0.00000000
Si       2.71175395       0.00149705      -2.71248809       0.00000000
Si      -2.71402870       0.00300062      -2.71446707       0.00000000
Si      -2.71440337       0.00191082       2.71471010       0.00000000
Si       2.71488163      -2.71473569       0.00006944       0.00000000
Si       2.71527259      -0.00050499       2.71439763       0.00000000
