10
Lattice="16.28999089631971 0.0 0.0 0.0 16.28999089631971 0.0 0.0 0.0 34.71893929493243" Properties=species:S:1:pos:R:3:initial_magmoms:R:1 pbc="T T T"
Si      -1.57688503      -0.71412102       1.60391173       0.00000000
Si      -0.95462332      -0.11585448      -2.16455348       0.00000000
Si       1.82609271      -1.43584947       0.60529033       0.00000000
Si       0.96443316       2.20610583      -0.15210376       0.00000000
Si       1.09154403      -0.65624265      -3.32843713       0.00000000
Si      -1.80088719      -3.04295571       1.05316489       0.00000000
Si       1.20954879       2.87000478       2.11056550       0.00000000
Si      -1.89760581       2.11887288      -2.52538762       0.00000000
Si      -0.60233904      -0.27367200       3.76495860       0.00000000
Si       3.54419901      -1.22106582      -0.97150590       0.00000000
