10
Lattice="16.28999089631971 0.0 0.0 0.0 16.28999089631971 0.0 0.0 0.0 34.71893929493243" Properties=species:S:1:pos:R:3:initial_magmoms:R:1 pbc="T T T"
Si      -1.35728068      -1.35654975      -1.35688634       0.00000000
Si       1.35621092      -1.35661491       1.35813623       0.00000000
Si       1.35735122       1.35863551      -1.35664331       0.00000000
Si      -1.35613014       1.35719379       1.36383014       0.00000000
Si       2.71463402      -2.71125873       0.00000000       0.00000000
Si      -0.00052291      -2.71339272      -2.71398100       0.00000000
Si       2.71442225       0.00179190      -2.71377269       0.00000000
Si      -2.71509081       0.00118917      -2.71342550       0.00000000
Si      -2.71494420      -2.71414206       0.00024303       0.00000000
Si      -0.00045938       2.71652759      -2.71384213       0.00000000
