10
Lattice="16.28999089631971 0.0 0.0 0.0 16.28999089631971 0.0 0.0 0.0 34.71893929493243" Properties=species:S:1:pos:R:3:initial_magmoms:R:1 pbc="T T T"
Si       1.35327709       1.35199832      -1.38730015       0.00000000
Si      -1.36070926      -1.36377119      -1.38250894       0.00000000
Si      -1.38889096       1.37351741       1.39834078       0.00000000
Si       1.52358904      -1.25415342       1.47055621       0.00000000
Si       2.71064134       2.69203001      -0.00458290       0.00000000
Si       2.70725302      -2.70951311      -0.02270620       0.00000000
Si      -2.72687011      -2.71477478       0.00406212       0.00000000
Si      -2.73032359       2.72118911      -0.01145726       0.00000000
Si      -0.00455305       2.71048658      -2.74477672       0.00000000
Si       2.71023409      -0.00494239      -2.74578357       0.00000000
