10
Lattice="16.28999089631971 0.0 0.0 0.0 16.28999089631971 0.0 0.0 0.0 34.71893929493243" Properties=species:S:1:pos:R:3:initial_magmoms:R:1 pbc="T T T"
Si       0.97588014       1.82705382       1.08555768       0.00000000
Si       1.80693241      -1.47970215       0.63514863       0.00000000
Si      -1.03988259      -0.38859795      -2.22492975       0.00000000
Si      -2.76531939      -0.13484862      -0.15036781       0.00000000
Si       0.64470770      -2.24909514      -2.23569263       0.00000000
Si      -2.68131186      -1.98066852       1.48708244       0.00000000
Si       1.65318739       2.39130684      -2.25454502       0.00000000
Si       0.21043259       1.62671940       3.32541658       0.00000000
Si       0.51996703       3.74937156      -0.16699819       0.00000000
Si       0.90847864      -3.70876059       0.51564597       0.00000000
