10
Lattice="10.86 0.0 0.0 0.0 10.86 0.0 0.0 0.0 10.86" Properties=species:S:1:pos:R:3:initial_magmoms:R:1 pbc="T T T"
Si       1.24975794       1.41072486      -1.29761796       0.00000000
Si       1.24975794      -1.30427514       1.41738204       0.00000000
Si      -1.46524206      -1.30427514      -1.29761796       0.00000000
Si       2.60725794       0.05322486      -2.65511796       0.00000000
Si       2.60725794      -2.66177514       0.05988204       0.00000000
Si      -0.10774206      -2.66177514      -2.65511796       0.00000000
Si       2.60725794       2.76822486       0.05988204       0.00000000
Si       2.60725794       0.05322486       2.77488204       0.00000000
Si      -0.10774206       2.76822486      -2.65511796       0.00000000
Si      -0.10774206      -2.66177514       2.77488204       0.00000000
