10
Lattice="10.86 0.0 0.0 0.0 10.86 0.0 0.0 0.0 10.86" Properties=species:S:1:pos:R:3:initial_magmoms:R:1 pbc="T T T"
Si      -1.29779172       1.35109260       1.32422496       0.00000000
Si      -1.29779172      -1.36390740      -1.39077504       0.00000000
Si       1.41720828      -1.36390740       1.32422496       0.00000000
Si      -2.65529172      -0.00640740       2.68172496       0.00000000
Si      -2.65529172       2.70859260      -0.03327504       0.00000000
Si      -2.65529172      -2.72140740      -0.03327504       0.00000000
Si       0.05970828       2.70859260       2.68172496       0.00000000
Si       0.05970828      -2.72140740       2.68172496       0.00000000
Si      -2.65529172      -0.00640740      -2.74827504       0.00000000
Si       2.77470828      -0.00640740       2.68172496       0.00000000
