10
Lattice="10.86 0.0 0.0 0.0 10.86 0.0 0.0 0.0 10.86" Properties=species:S:1:pos:R:3:initial_magmoms:R:1 pbc="T T T"
Si      -1.43868936       1.38027342       1.22308578       0.00000000
Si      -1.49860398      -1.38352056      -1.17734346       0.00000000
Si       1.37886162      -1.42122648       1.46098494       0.00000000
Si       2.61248160      -0.06373734       2.57471052       0.00000000
Si      -0.10251840       2.65126266       2.57471052       0.00000000
Si      -0.10251840      -2.77873734       2.57471052       0.00000000
Si       2.61248160      -2.77873734      -0.14028948       0.00000000
Si      -2.81751840      -0.06373734       2.57471052       0.00000000
Si      -2.81751840       2.65126266      -0.14028948       0.00000000
Si      -2.81751840      -2.77873734      -0.14028948       0.00000000
