10
Lattice="10.86 0.0 0.0 0.0 10.86 0.0 0.0 0.0 10.86" Properties=species:S:1:pos:R:3:initial_magmoms:R:1 pbc="T T T"
Si       1.33146858       1.22239074       1.40941080       0.00000000
Si       1.33146858      -1.49260926      -1.30558920       0.00000000
Si      -1.38353142      -1.49260926       1.40941080       0.00000000
Si       0.07554216       2.72880306      -2.38971042       0.00000000
Si       2.68896858       2.57989074       0.05191080       0.00000000
Si      -0.02506488       2.50874688       2.81318526       0.00000000
Si       2.68896858      -0.13510926      -2.66308920       0.00000000
Si       2.68896858      -0.13510926       2.76691080       0.00000000
Si      -2.84866488      -0.02757354      -2.66352360       0.00000000
Si      -0.02603142      -2.85010926      -2.66308920       0.00000000
