10
Lattice="10.86 0.0 0.0 0.0 10.86 0.0 0.0 0.0 10.86" Properties=species:S:1:pos:R:3:initial_magmoms:R:1 pbc="T T T"
Si       1.21073796      -1.35056046      -1.36881612       0.00000000
Si      -1.50426204      -1.35056046       1.34618388       0.00000000
Si       1.04398266       1.78741482       1.30009404       0.00000000
Si      -1.50426204       1.36443954      -1.36881612       0.00000000
Si       2.35947618       2.62478598      -0.21324696       0.00000000
Si       2.46060450      -2.60052474      -0.01175052       0.00000000
Si       2.56823796       0.00693954      -2.72631612       0.00000000
Si      -0.14676204      -2.70806046      -2.72631612       0.00000000
Si      -0.14676204       2.72193954      -2.72631612       0.00000000
Si      -2.86176204       0.00693954       2.70368388       0.00000000
