10
Lattice="10.86 0.0 0.0 0.0 10.86 0.0 0.0 0.0 10.86" Properties=species:S:1:pos:R:3:initial_magmoms:R:1 pbc="T T T"
Si      -1.26479904      -1.37617920       1.20744738       0.00000000
Si       1.28344566      -0.95320392      -1.55364246       0.00000000
Si       1.45020096       1.33882080       1.20744738       0.00000000
Si      -1.26479904       1.33882080      -1.50755262       0.00000000
Si       2.69696154      -0.19985658       2.41590474       0.00000000
Si      -2.62229904      -0.01867920       2.56494738       0.00000000
Si       0.11403000      -2.64716844       2.57082264       0.00000000
Si       0.09270096       2.69632080       2.56494738       0.00000000
Si      -2.62229904       2.69632080      -0.15005262       0.00000000
Si      -2.62229904      -2.73367920      -0.15005262       0.00000000
