10
Lattice="10.86 0.0 0.0 0.0 10.86 0.0 0.0 0.0 10.86" Properties=species:S:1:pos:R:3:initial_magmoms:R:1 pbc="T T T"
Si      -1.24986654       1.24996428      -1.35706560       0.00000000
Si      -1.24986654      -1.46503572       1.35793440       0.00000000
Si       1.46513346      -1.46503572      -1.35706560       0.00000000
Si      -2.46060450       2.60052474       0.01175052       0.00000000
Si      -2.60736654      -0.10753572      -2.71456560       0.00000000
Si       0.10763346       2.60746428      -2.71456560       0.00000000
Si      -2.60736654      -2.82253572       0.00043440       0.00000000
Si       2.84866488       0.02757354       2.66352360       0.00000000
Si       0.10763346      -2.82253572      -2.71456560       0.00000000
Si       2.82263346      -0.10753572      -2.71456560       0.00000000
