10
Lattice="16.28999089631971 0.0 0.0 0.0 16.28999089631971 0.0 0.0 0.0 34.395419527814205" Properties=species:S:1:pos:R:3:initial_magmoms:R:1 pbc="T T T"
Si       1.39646025       1.36403826      -1.36744712       0.00000000
Si       1.35498591      -1.28339701       1.52146847       0.00000000
Si      -1.77513759      -0.93656260      -1.42863660       0.00000000
Si      -1.35193968       1.43705004       1.53113359       0.00000000
Si      -2.77262316      -2.61243937       0.08025832       0.00000000
Si       2.80722312      -2.60688448      -0.00067415       0.00000000
Si      -2.70296712       2.74101567       0.09938562       0.00000000
Si       2.67103872       2.81311521      -0.00087020       0.00000000
Si      -0.01099575      -2.63407249       2.90805868       0.00000000
Si      -3.55907178       1.03364448      -1.36655283       0.00000000
