10
Lattice="16.28999089631971 0.0 0.0 0.0 16.28999089631971 0.0 0.0 0.0 34.395419527814205" Properties=species:S:1:pos:R:3:initial_magmoms:R:1 pbc="T T T"
Si      -1.35705474      -1.35681365       1.35693445       0.00000000
Si       1.35767376      -1.35710524      -1.35717522       0.00000000
Si      -1.35747828       1.35755973      -1.35714083       0.00000000
Si       1.35801585       1.35824391       1.35727841       0.00000000
Si       2.71391400       0.00027693      -2.71338737       0.00000000
Si      -0.00068418      -2.71289881      -2.71472879       0.00000000
Si      -0.00029322       2.71386513      -2.71404089       0.00000000
Si      -0.00172674      -2.71335104       2.71493517       0.00000000
Si       2.71451673      -2.71436791       0.00006879       0.00000000
Si      -2.71494027      -2.71453564      -0.00003440       0.00000000
