10
Lattice="16.28999089631971 0.0 0.0 0.0 16.28999089631971 0.0 0.0 0.0 34.395419527814205" Properties=species:S:1:pos:R:3:initial_magmoms:R:1 pbc="T T T"
Si       1.35624024       1.35738217      -1.35621215       0.00000000
Si       1.35684297      -1.35726268       1.35724401       0.00000000
Si      -1.35835794      -1.35579357      -1.35755357       0.00000000
Si      -1.35767376       1.35710524       1.35717522       0.00000000
Si      -2.71472850       0.00029159       2.71410968       0.00000000
Si       2.71450044       0.00021503       2.71462561       0.00000000
Si       0.00094482       2.71502335      -2.71421286       0.00000000
Si      -0.00021177      -2.71452229       2.71490077       0.00000000
Si       2.71463076       2.71494190      -0.00017198       0.00000000
Si      -2.71502172      -2.71460374      -0.00017198       0.00000000
