10
Lattice="16.28999089631971 0.0 0.0 0.0 16.28999089631971 0.0 0.0 0.0 34.395419527814205" Properties=species:S:1:pos:R:3:initial_magmoms:R:1 pbc="T T T"
Si       2.25059382      -0.56373174      -0.05599577       0.00000000
Si      -1.03314438       1.83914100      -1.02642868       0.00000000
Si      -0.73573785      -2.21073545      -0.48511327       0.00000000
Si      -0.20706219       0.38133261       2.35398943       0.00000000
Si      -2.12058333      -1.02863205       2.62320253       0.00000000
Si       2.37257334      -2.21653143       1.62642272       0.00000000
Si       0.82140696       3.14361162      -1.78158054       0.00000000
Si       1.66234563      -0.72122346       3.25250148       0.00000000
Si      -2.69808012      -2.46503049       0.72825462       0.00000000
Si       0.66059208      -3.59063270       0.92840168       0.00000000
