10
Lattice="16.28999089631971 0.0 0.0 0.0 16.28999089631971 0.0 0.0 0.0 34.395419527814205" Properties=species:S:1:pos:R:3:initial_magmoms:R:1 pbc="T T T"
Si       1.33393923       1.87191648      -0.25954798       0.00000000
Si      -2.34747045       0.26148708       0.40280498       0.00000000
Si       0.47330595      -1.64111976      -1.68974472       0.00000000
Si      -0.65072034       2.18729088       2.67919831       0.00000000
Si       1.37433843       2.14692426      -2.61904068       0.00000000
Si       3.44841381       1.15360893       0.47940363       0.00000000
Si       2.81514006      -1.92836785      -1.44075614       0.00000000
Si      -2.37372993      -1.22378625       2.56875455       0.00000000
Si      -3.25389492      -0.76043349      -1.67117118       0.00000000
Si       2.58180210      -0.89339247       2.56786027       0.00000000
