10
Lattice="16.28999089631971 0.0 0.0 0.0 16.28999089631971 0.0 0.0 0.0 34.395419527814205" Properties=species:S:1:pos:R:3:initial_magmoms:R:1 pbc="T T T"
Si      -1.27700568      -1.43707155      -1.45172828       0.00000000
Si       1.38548079      -1.35079400       1.47157445       0.00000000
Si       1.45652148       1.21074936      -1.54968649       0.00000000
Si      -1.31571072       1.32264537       1.58731510       0.00000000
Si      -2.01738618      -1.11284158       2.19463536       0.00000000
Si       2.45034180       0.73576554       1.96497702       0.00000000
Si      -2.96208238      -2.28764935      -0.08884342       0.00000000
Si      -2.67462904       2.72332473       0.18735195       0.00000000
Si       3.07643166       2.28264765      -0.15092719       0.00000000
Si       0.06603966       2.59535049      -2.86376423       0.00000000
