10
Lattice="16.28999089631971 0.0 0.0 0.0 16.28999089631971 0.0 0.0 0.0 34.395419527814205" Properties=species:S:1:pos:R:3:initial_magmoms:R:1 pbc="T T T"
Si       1.35529542      -1.35764118       1.35800071       0.00000000
Si      -1.35891180       1.35594702       1.35734720       0.00000000
Si       1.34874684       1.34537481      -1.38435106       0.00000000
Si      -1.34096022      -1.36071999      -1.38376978       0.00000000
Si       2.71202436      -2.71095899      -0.00467778       0.00000000
Si       2.71368594      -0.00008145       2.71404089       0.00000000
Si      -0.00099369       2.71482624       2.71400649       0.00000000
Si       2.71412577       2.71477737      -0.00564085       0.00000000
Si      -0.00094482      -2.71502335       2.71421286       0.00000000
Si      -2.71508688       2.71503801      -0.00350833       0.00000000
