10
Lattice="16.28999089631971 0.0 0.0 0.0 16.28999089631971 0.0 0.0 0.0 34.395419527814205" Properties=species:S:1:pos:R:3:initial_magmoms:R:1 pbc="T T T"
Si       1.35682668       1.35716877      -1.35720962       0.00000000
Si      -1.35804843      -1.35821133      -1.35727841       0.00000000
Si      -1.35757602       1.35751086       1.35961730       0.00000000
Si       1.35674523      -1.35839052       1.36126828       0.00000000
Si      -0.00039096       2.71433754      -2.71483198       0.00000000
Si       2.71448415      -0.00058644      -2.71493517       0.00000000
Si      -2.71539965       2.71437012       0.00017198       0.00000000
Si       2.71498914       2.71494027      -0.00034395       0.00000000
Si       2.71487511      -2.71508688      -0.00027516       0.00000000
Si      -2.71565866      -0.00043983      -2.71476319       0.00000000
