10
Lattice="16.28999089631971 0.0 0.0 0.0 16.28999089631971 0.0 0.0 0.0 34.395419527814205" Properties=species:S:1:pos:R:3:initial_magmoms:R:1 pbc="T T T"
Si      -1.11926961      -0.34070535      -2.03277043       0.00000000
Si       1.38779397      -1.78592157       0.99182687       0.00000000
Si       2.14785279       1.11692385      -0.51727300       0.00000000
Si      -1.68694353       0.10624338       1.82216716       0.00000000
Si      -1.19114109       2.16937188      -0.59435318       0.00000000
Si       2.33623035      -2.22565383      -1.20280849       0.00000000
Si      -2.86879932       1.95491403       0.97631453       0.00000000
Si       2.68011225      -0.22133223      -2.43492190       0.00000000
Si       3.21758451       1.06416054       1.63952738       0.00000000
Si      -3.44087154      -0.79397460      -1.38434762       0.00000000
