10
Lattice="16.28999089631971 0.0 0.0 0.0 16.28999089631971 0.0 0.0 0.0 34.395419527814205" Properties=species:S:1:pos:R:3:initial_magmoms:R:1 pbc="T T T"
Si      -1.34503272      -1.35685926       1.37038307       0.00000000
Si       1.35747828      -1.35599589      -1.35992686       0.00000000
Si      -1.35785295       1.35896067      -1.35892939       0.00000000
Si       1.35674523       1.35045729       1.38940375       0.00000000
Si      -2.67797826       0.02985957       2.73189212       0.00000000
Si       2.71065600      -2.71409319      -0.00165098       0.00000000
Si      -2.71401174       2.71339272       0.00326757       0.00000000
Si      -0.00057015      -2.71394658      -2.71607022       0.00000000
Si       2.71402803       0.00118917      -2.71631098       0.00000000
Si      -2.71609686      -2.71437012       0.00268284       0.00000000
