10
Lattice="16.28999089631971 0.0 0.0 0.0 16.28999089631971 0.0 0.0 0.0 34.395419527814205" Properties=species:S:1:pos:R:3:initial_magmoms:R:1 pbc="T T T"
Si      -1.02381021      -1.45515312       1.50473165       0.00000000
Si       1.33294554      -1.38671883      -1.36150905       0.00000000
Si      -1.39887117       1.32993189      -1.37251559       0.00000000
Si       1.24937784       1.30300452       1.57548307       0.00000000
Si      -1.94637807       0.30740859       2.86163171       0.00000000
Si       0.90038088      -2.55669921       2.64803604       0.00000000
Si       2.67797826      -0.02985957      -2.73189212       0.00000000
Si      -0.03603348       2.68353315      -2.72862455       0.00000000
Si       2.80699506       2.64813498       0.25115549       0.00000000
Si      -0.03811860      -2.74422969      -2.72920927       0.00000000
