10
Lattice="16.28999089631971 0.0 0.0 0.0 16.28999089631971 0.0 0.0 0.0 34.395419527814205" Properties=species:S:1:pos:R:3:initial_magmoms:R:1 pbc="T T T"
Si      -0.95102649       1.43353629      -1.59784011       0.00000000
Si      -0.83890242       0.47860020       2.17640578       0.00000000
Si       1.77808608      -1.38209247      -1.35119042       0.00000000
Si      -1.41766983      -2.37768840      -0.06504177       0.00000000
Si       1.25266842      -0.08928549       3.11326874       0.00000000
Si       2.86767531       0.91158840       1.59612034       0.00000000
Si      -2.21315940       0.09119142      -2.98342596       0.00000000
Si       0.57420621       2.78956476      -2.79875685       0.00000000
Si      -2.58567912      -1.01147868       2.87594022       0.00000000
Si       0.52870824      -2.68509699      -2.92667349       0.00000000
