10
Lattice="16.28999089631971 0.0 0.0 0.0 16.28999089631971 0.0 0.0 0.0 34.395419527814205" Properties=species:S:1:pos:R:3:initial_magmoms:R:1 pbc="T T T"
Si      -0.11391597       2.28362994       0.62651292       0.00000000
Si       2.33078949      -0.47718297      -0.39386217       0.00000000
Si      -1.61500689      -1.00087389       1.51714841       0.00000000
Si      -2.86767531      -0.91158840      -1.59612034       0.00000000
Si       1.05793776       1.94997816       2.71999130       0.00000000
Si      -0.56751102      -3.10559076       1.71561009       0.00000000
Si       2.46047418      -0.28150749      -2.83576634       0.00000000
Si      -3.70657773      -0.43298820       0.58028545       0.00000000
Si       0.86846877       3.49567110      -1.25522714       0.00000000
Si      -1.08958923      -2.29368087      -2.94731075       0.00000000
