10
Lattice="16.28999089631971 0.0 0.0 0.0 16.28999089631971 0.0 0.0 0.0 34.395419527814205" Properties=species:S:1:pos:R:3:initial_magmoms:R:1 pbc="T T T"
Si      -0.96097968      -0.00042354      -2.31422831       0.00000000
Si       2.27833569      -0.77229261      -0.87020460       0.00000000
Si       0.80052318      -1.45062450       2.00828088       0.00000000
Si       0.39297996       2.51195058      -0.59882459       0.00000000
Si      -2.14485543       1.20414051       1.75096860       0.00000000
Si      -0.57738276       2.31412482      -2.69863173       0.00000000
Si       3.52142559       0.96202224       0.14556150       0.00000000
Si      -3.61263330       1.34627076      -0.28617005       0.00000000
Si       1.85650614       0.15211602       3.40658070       0.00000000
Si       2.64507246       2.58468543      -1.23981799       0.00000000
