10
Lattice="16.28999089631971 0.0 0.0 0.0 16.28999089631971 0.0 0.0 0.0 34.395419527814205" Properties=species:S:1:pos:R:3:initial_magmoms:R:1 pbc="T T T"
Si       1.35573525      -1.35718506       1.36453585       0.00000000
Si      -1.35928647       1.36102561       1.36350398       0.00000000
Si       1.36598166       1.35067548      -1.38659020       0.00000000
Si      -1.35360126      -1.36787130      -1.39266100       0.00000000
Si       2.71458189      -2.71042794       0.00330196       0.00000000
Si      -2.71454931      -2.71384884       0.00192614       0.00000000
Si      -2.71704168       2.71518529       0.00522811       0.00000000
Si       2.71204065       2.72088353       0.00216691       0.00000000
Si      -0.00100998      -2.71352304       2.72081679       0.00000000
Si       2.71419093       0.00166158       2.72081679       0.00000000
