10
Lattice="16.28999089631971 0.0 0.0 0.0 16.28999089631971 0.0 0.0 0.0 34.395419527814205" Properties=species:S:1:pos:R:3:initial_magmoms:R:1 pbc="T T T"
Si      -1.35759231       1.35717333       1.35731280       0.00000000
Si       1.35721764      -1.35770634       1.35751918       0.00000000
Si       1.35666378       1.35881017      -1.35738159       0.00000000
Si      -1.35878148      -1.35826020      -1.35717522       0.00000000
Si      -0.00109143       2.71296985      -2.71565747       0.00000000
Si      -2.71410296       0.00073305       2.71479759       0.00000000
Si      -2.71466008       2.71446853       0.00017198       0.00000000
Si       0.00029322       2.71489533       2.71428165       0.00000000
Si       2.71502172       2.71460374       0.00017198       0.00000000
Si       2.71480995       0.00008145       2.71507275       0.00000000
