10
Lattice="16.28999089631971 0.0 0.0 0.0 16.28999089631971 0.0 0.0 0.0 34.395419527814205" Properties=species:S:1:pos:R:3:initial_magmoms:R:1 pbc="T T T"
Si       1.35674523       1.35633798      -1.35628094       0.00000000
Si      -1.35716877      -1.35830907      -1.35772555       0.00000000
Si       1.35786924      -1.35734796       1.35800071       0.00000000
Si      -1.35772263       1.35803214       1.35758797       0.00000000
Si       0.00053757      -2.71427238       2.71462561       0.00000000
Si       0.00076563      -2.71378368      -2.71551989       0.00000000
Si       2.71490769      -2.71453302       0.00003440       0.00000000
Si      -2.71484253      -2.71487511       0.00013758       0.00000000
Si      -2.71528236      -0.00004887       2.71479759       0.00000000
Si       2.71520091       2.71518462       0.00000000       0.00000000
