10
Lattice="16.28999089631971 0.0 0.0 0.0 16.28999089631971 0.0 0.0 0.0 34.395419527814205" Properties=species:S:1:pos:R:3:initial_magmoms:R:1 pbc="T T T"
Si      -1.52523270      -1.35602847       1.20091674       0.00000000
Si       1.29160152      -1.43063667      -1.46376669       0.00000000
Si      -1.43591463       1.28260944      -1.47539235       0.00000000
Si       1.36751292       1.52212131       1.41588824       0.00000000
Si       2.62218501       2.80704460      -0.08880902       0.00000000
Si      -2.79362097       2.68958849      -0.06934120       0.00000000
Si       2.63125854      -0.07646526      -2.85540614       0.00000000
Si      -2.78736561      -2.69837334      -0.18466911       0.00000000
Si      -0.08522928       2.64280815      -2.86101260       0.00000000
Si       2.76149709      -2.82652677       0.12323886       0.00000000
