10
Lattice="16.28999089631971 0.0 0.0 0.0 16.28999089631971 0.0 0.0 0.0 34.395419527814205" Properties=species:S:1:pos:R:3:initial_magmoms:R:1 pbc="T T T"
Si      -0.24674463       1.41826346       1.94932710       0.00000000
Si       2.23331013      -1.05256206      -0.14373854       0.00000000
Si      -1.97429913      -1.50289911       0.44796619       0.00000000
Si      -0.07737750       1.31765039      -2.31116711       0.00000000
Si      -1.63952334      -0.44033499       2.58172163       0.00000000
Si       3.21569487       0.15947910      -2.02547860       0.00000000
Si       0.98748351       3.40420994      -1.81776454       0.00000000
Si       1.42126992       0.06390567      -3.74924041       0.00000000
Si      -1.35935163      -3.76918020      -0.18996601       0.00000000
Si      -1.89341928       3.19880933       1.57520791       0.00000000
