10
Lattice="16.28999089631971 0.0 0.0 0.0 16.28999089631971 0.0 0.0 0.0 34.395419527814205" Properties=species:S:1:pos:R:3:initial_magmoms:R:1 pbc="T T T"
Si      -0.29722734       1.81661193      -1.42304249       0.00000000
Si       1.57227822      -1.46590452      -1.02123497       0.00000000
Si      -1.98834111      -1.33152831       0.14315382       0.00000000
Si       1.06261299       0.47157921       2.10180208       0.00000000
Si      -1.60702479      -1.91554110       2.39976976       0.00000000
Si       0.46195182      -1.49594328       3.33928117       0.00000000
Si      -0.63200313       0.75404781      -3.55679793       0.00000000
Si       3.38480136       0.33150150       1.46978589       0.00000000
Si       1.58397444      -3.40662996       0.29439056       0.00000000
Si       3.69356202      -0.65083437      -0.62513710       0.00000000
