10
Lattice="16.28999089631971 0.0 0.0 0.0 16.28999089631971 0.0 0.0 0.0 34.395419527814205" Properties=species:S:1:pos:R:3:initial_magmoms:R:1 pbc="T T T"
Si      -1.35198855      -1.35755321       1.37929493       0.00000000
Si       1.36593279       1.35374787       1.37678406       0.00000000
Si       1.33853301      -1.46620751      -1.34363718       0.00000000
Si      -1.38199473       1.36875096      -1.53180086       0.00000000
Si       2.41629570       0.24299793      -2.55284529       0.00000000
Si      -2.71526607       2.69878059      -0.00037835       0.00000000
Si      -2.69804754      -2.72776127      -0.00946219       0.00000000
Si       2.71379997       2.71974582      -0.00401051       0.00000000
Si       0.00697212       2.70971118       2.74018486       0.00000000
Si      -2.70871749      -0.00423540       2.74197342       0.00000000
