10
Lattice="16.28999089631971 0.0 0.0 0.0 16.28999089631971 0.0 0.0 0.0 34.395419527814205" Properties=species:S:1:pos:R:3:initial_magmoms:R:1 pbc="T T T"
Si      -2.28863749       0.55851894       0.09892128       0.00000000
Si       0.13056435      -2.37550391       0.22061234       0.00000000
Si       1.12436838       0.85265118      -1.96869173       0.00000000
Si       0.90642447       1.02192057       2.07397617       0.00000000
Si      -0.37590804       3.18643803       1.09594186       0.00000000
Si       3.25389492       0.76043349       1.67117118       0.00000000
Si       2.46141900      -2.83819760       0.17097973       0.00000000
Si      -3.42320408      -0.61967160      -1.55911084       0.00000000
Si       3.72720087      -0.88068627      -0.01857354       0.00000000
Si       3.13426116      -0.34995807      -2.26053703       0.00000000
