10
Lattice="16.28999089631971 0.0 0.0 0.0 16.28999089631971 0.0 0.0 0.0 34.395419527814205" Properties=species:S:1:pos:R:3:initial_magmoms:R:1 pbc="T T T"
Si       0.71022771      -1.49530797      -1.62607876       0.00000000
Si      -0.84815514      -1.12538488       1.86165312       0.00000000
Si      -1.86940782       1.10255607      -0.89851205       0.00000000
Si       2.00775879       1.23618294      -0.08805232       0.00000000
Si       0.58824819       0.15749172      -3.30849725       0.00000000
Si       3.60970110      -0.43774488       0.20926185       0.00000000
Si       2.12876091       1.74803103      -2.41707067       0.00000000
Si      -3.18998925      -0.83813679       1.61266454       0.00000000
Si      -1.66234563       0.72122346      -3.25250148       0.00000000
Si      -2.28895677       2.94990723       0.68336858       0.00000000
