10
Lattice="16.28999089631971 0.0 0.0 0.0 16.28999089631971 0.0 0.0 0.0 34.395419527814205" Properties=species:S:1:pos:R:3:initial_magmoms:R:1 pbc="T T T"
Si      -1.30482900       1.31022099       1.54784978       0.00000000
Si       1.39631364      -1.40592474       1.54782914       0.00000000
Si       1.64426373       1.23059547      -1.52625430       0.00000000
Si      -2.03613597      -0.80853786      -1.34512792       0.00000000
Si      -2.74908411       2.60750772       0.10669121       0.00000000
Si      -2.69948106      -2.75691960       0.02003878       0.00000000
Si       2.80587105       2.65326633       0.00998500       0.00000000
Si       2.77127109      -2.79896409       0.18554275       0.00000000
Si       0.04663827       2.65675239       2.93374863       0.00000000
Si      -2.66737347      -0.05748741       2.93017150       0.00000000
