10
Lattice="16.28999089631971 0.0 0.0 0.0 16.28999089631971 0.0 0.0 0.0 34.395419527814205" Properties=species:S:1:pos:R:3:initial_magmoms:R:1 pbc="T T T"
Si      -1.34874684      -1.34537481       1.38435106       0.00000000
Si       1.36537893       1.36940256       1.37871021       0.00000000
Si      -1.44300078       1.30763088      -1.42748638       0.00000000
Si       1.33327134      -1.33002963      -1.53142251       0.00000000
Si       1.99661643       0.61835211      -2.89658921       0.00000000
Si       0.22768533       2.43165717      -2.84306991       0.00000000
Si      -2.68970706      -2.70609480       0.00058128       0.00000000
Si       2.71526607      -2.69878059       0.00037835       0.00000000
Si      -2.70585045       2.72888451       0.00992652       0.00000000
Si       0.00654858      -2.70301599       2.74235177       0.00000000
