10
Lattice="16.28999089631971 0.0 0.0 0.0 16.28999089631971 0.0 0.0 0.0 34.395419527814205" Properties=species:S:1:pos:R:3:initial_magmoms:R:1 pbc="T T T"
Si      -1.34801379      -1.35632169       1.33633159       0.00000000
Si      -1.35317772       1.35809730      -1.35827588       0.00000000
Si       1.36145304      -1.35617508      -1.35710643       0.00000000
Si       1.37733579       1.36910934       1.38620497       0.00000000
Si      -2.56909590       0.00289962       2.73859923       0.00000000
Si       0.00493587      -2.52359793       2.83641986       0.00000000
Si      -2.71065600       2.71409319       0.00165098       0.00000000
Si      -2.71122615       0.00014661      -2.71441924       0.00000000
Si      -2.71083519      -2.71492398       0.00099747       0.00000000
Si       0.00291591      -2.71427238      -2.71438484       0.00000000
