10
Lattice="16.28999089631971 0.0 0.0 0.0 16.28999089631971 0.0 0.0 0.0 34.395419527814205" Properties=species:S:1:pos:R:3:initial_magmoms:R:1 pbc="T T T"
Si       2.00989278      -1.20260925      -0.29184530       0.00000000
Si       1.24028802       2.05917003       0.10019391       0.00000000
Si      -1.42245909      -0.24247665      -1.94513085       0.00000000
Si      -1.12436838      -0.85265118       1.96869173       0.00000000
Si       2.60283249      -1.73333745       1.95011819       0.00000000
Si       1.43239599      -2.63900769      -2.18679320       0.00000000
Si      -0.21646152       3.50438625       1.30131703       0.00000000
Si      -0.24334002      -1.60397856      -3.48078401       0.00000000
Si       3.92341392       0.20735541      -0.56105840       0.00000000
Si       1.84195917       2.77905771      -2.15559654       0.00000000
