10
Lattice="16.28999089631971 0.0 0.0 0.0 16.28999089631971 0.0 0.0 0.0 34.395419527814205" Properties=species:S:1:pos:R:3:initial_magmoms:R:1 pbc="T T T"
Si       1.83526398       0.86014458      -1.36178421       0.00000000
Si      -0.93068028      -1.77614757      -1.44429887       0.00000000
Si       0.25179453      -0.61965531       2.39423210       0.00000000
Si      -1.79385480       1.74646719      -0.14679973       0.00000000
Si      -2.09908053      -0.21807423       2.71527912       0.00000000
Si       0.44171964       2.11655970      -2.89451375       0.00000000
Si      -2.28362994      -0.60887133      -2.94438714       0.00000000
Si      -2.86146882      -2.54614329      -0.24393245       0.00000000
Si      -0.79754211       3.53266569      -1.41764240       0.00000000
Si      -3.50471205       0.75034998      -1.54211950       0.00000000
