10
Lattice="16.28999089631971 0.0 0.0 0.0 16.28999089631971 0.0 0.0 0.0 34.395419527814205" Properties=species:S:1:pos:R:3:initial_magmoms:R:1 pbc="T T T"
Si      -0.31193721      -1.87706412      -1.34620308       0.00000000
Si       0.11533320       1.80542070      -1.48086122       0.00000000
Si       1.88182080      -0.51702831       1.31105094       0.00000000
Si      -0.94757301       0.51258114       2.16347310       0.00000000
Si      -1.63742193       3.10660074      -0.58014787       0.00000000
Si      -1.75438413       2.68543908       1.78856281       0.00000000
Si      -2.53457739      -1.15665516       2.52366213       0.00000000
Si      -0.45844947       0.98106525      -3.63621699       0.00000000
Si       2.32319835       2.65582386      -1.55508658       0.00000000
Si       1.29000510      -3.55099194      -1.04888890       0.00000000
