10
Lattice="16.28999089631971 0.0 0.0 0.0 16.28999089631971 0.0 0.0 0.0 34.395419527814205" Properties=species:S:1:pos:R:3:initial_magmoms:R:1 pbc="T T T"
Si      -1.96511157       0.99911457      -0.77761208       0.00000000
Si       0.26751438      -2.34628128      -0.03900443       0.00000000
Si       0.57378267       0.82435545       2.15535577       0.00000000
Si       1.56504546       0.90430677      -1.54848265       0.00000000
Si       0.14651226      -2.85812937       2.29001392       0.00000000
Si       2.02887063      -2.59761969      -1.62704183       0.00000000
Si      -1.32931287       3.31183845      -1.16555823       0.00000000
Si       2.93449689       2.37094434      -0.19536609       0.00000000
Si       0.45844947      -0.98106525       3.63621699       0.00000000
Si      -2.70218520      -0.22947723      -2.65601578       0.00000000
