10
Lattice="16.28999089631971 0.0 0.0 0.0 16.28999089631971 0.0 0.0 0.0 34.395419527814205" Properties=species:S:1:pos:R:3:initial_magmoms:R:1 pbc="T T T"
Si       1.05598296       1.60274052       1.39829982       0.00000000
Si      -1.67068611      -1.12402629       1.41558353       0.00000000
Si       1.76893110      -1.81330506      -0.05351930       0.00000000
Si      -0.80052318       1.45062450      -2.00828088       0.00000000
Si       1.47781251       0.67833189      -2.87848548       0.00000000
Si       2.28462363      -1.49452605      -2.50357520       0.00000000
Si      -0.22768533      -2.43165717       2.84306991       0.00000000
Si       2.50023807       0.30545379       2.83945839       0.00000000
Si       0.69761925      -3.16376235      -2.14338616       0.00000000
Si       1.89268623       3.43036449       0.15335818       0.00000000
