10
Lattice="16.28999089631971 0.0 0.0 0.0 16.28999089631971 0.0 0.0 0.0 34.395419527814205" Properties=species:S:1:pos:R:3:initial_magmoms:R:1 pbc="T T T"
Si       1.04466141       1.63180188      -1.33920846       0.00000000
Si      -1.25641512       1.47005847       1.37479601       0.00000000
Si       1.47113361      -1.26799731       1.36737691       0.00000000
Si      -1.85738580      -0.82694556      -1.32415434       0.00000000
Si       2.20413474      -0.14170671      -2.64121340       0.00000000
Si      -2.69408907      -2.65456953      -0.07921270       0.00000000
Si       0.10163331      -2.60532486       2.74784472       0.00000000
Si      -2.61193860       0.11337840       2.74636572       0.00000000
Si      -2.50830162       2.85099435      -0.16566907       0.00000000
Si       2.74025493       2.70309744       0.00050561       0.00000000
