10
Lattice="16.28999089631971 0.0 0.0 0.0 16.28999089631971 0.0 0.0 0.0 34.395419527814205" Properties=species:S:1:pos:R:3:initial_magmoms:R:1 pbc="T T T"
Si       2.34747045      -0.26148708      -0.40280498       0.00000000
Si      -0.90642447      -1.02192057      -2.07397617       0.00000000
Si      -0.02625948      -1.48527333       2.16594957       0.00000000
Si      -1.28233251       2.16451746      -0.97803430       0.00000000
Si       1.69675011       1.92580380       2.27639332       0.00000000
Si       0.82984518       0.22209786       3.63188802       0.00000000
Si      -3.19506196      -0.46340163      -1.97505488       0.00000000
Si      -3.11743669       1.11097800       2.01436887       0.00000000
Si      -0.77586012      -3.39742448      -1.85336382       0.00000000
Si       2.82077640      -1.90260684      -2.09254970       0.00000000
