10
Lattice="16.28999089631971 0.0 0.0 0.0 16.28999089631971 0.0 0.0 0.0 34.395419527814205" Properties=species:S:1:pos:R:3:initial_magmoms:R:1 pbc="T T T"
Si       1.54012176       1.02853431      -1.40209567       0.00000000
Si      -1.05363720      -1.68723675      -1.30599481       0.00000000
Si      -1.78090425       1.58667858       0.25149945       0.00000000
Si       2.18406546      -0.96687666       1.57142441       0.00000000
Si      -1.91058894       1.39100310       2.69340362       0.00000000
Si       0.17857098       2.30777172      -2.82083872       0.00000000
Si       2.66132988       2.53314387       0.23124053       0.00000000
Si      -2.54562201      -0.40790160      -2.77801640       0.00000000
Si      -1.05407703       3.47599278      -1.24982706       0.00000000
Si       2.88575721      -0.40275396      -2.78805987       0.00000000
