10
Lattice="16.28999089631971 0.0 0.0 0.0 16.28999089631971 0.0 0.0 0.0 34.395419527814205" Properties=species:S:1:pos:R:3:initial_magmoms:R:1 pbc="T T T"
Si       1.83772377      -0.25306515       1.41836471       0.00000000
Si      -1.81903914      -1.53222111       0.36703373       0.00000000
Si      -0.49546035       2.23381512       0.75043968       0.00000000
Si       0.67163670      -0.31978899      -2.29427895       0.00000000
Si      -2.58734070      -1.44751311      -1.84823890       0.00000000
Si       1.20427083       3.42225207      -0.39269272       0.00000000
Si       0.99698058       0.39299625       3.53812120       0.00000000
Si       2.44477062      -2.47311522       1.33722587       0.00000000
Si      -0.69585993      -2.07010062      -3.05665385       0.00000000
Si      -3.51728793      -0.26028162       1.31772365       0.00000000
