10
Lattice="16.28999089631971 0.0 0.0 0.0 16.28999089631971 0.0 0.0 0.0 34.395419527814205" Properties=species:S:1:pos:R:3:initial_magmoms:R:1 pbc="T T T"
Si       0.87635313      -1.62266319       1.38537948       0.00000000
Si       0.22724550      -0.56290095      -2.26256636       0.00000000
Si      -2.25209250      -0.07273485       0.64099340       0.00000000
Si       1.12910877       1.99725174       0.52748845       0.00000000
Si      -0.36673677      -3.35697804       0.36961338       0.00000000
Si       0.04813695      -0.60494544       3.40145704       0.00000000
Si      -3.22245522      -0.27056061      -1.45881374       0.00000000
Si      -2.45798181       2.35509417       1.04059960       0.00000000
Si      -0.24977457      -2.93581638      -1.99909730       0.00000000
Si      -1.76464683       0.49642146      -3.15973698       0.00000000
