10
Lattice="16.28999089631971 0.0 0.0 0.0 16.28999089631971 0.0 0.0 0.0 34.395419527814205" Properties=species:S:1:pos:R:3:initial_magmoms:R:1 pbc="T T T"
Si       0.80681112      -2.17285794       0.37491028       0.00000000
Si       1.24308990       1.73431485       1.01576610       0.00000000
Si       0.11696220       0.42116166      -2.36871068       0.00000000
Si      -2.27833569       0.77229261       0.87020460       0.00000000
Si      -1.47781251      -0.67833189       2.87848548       0.00000000
Si       0.36673677       3.35697804      -0.36961338       0.00000000
Si      -2.02507506      -0.63403938      -2.84928375       0.00000000
Si      -3.23931537       0.77186907      -1.44402371       0.00000000
Si       1.75438413      -2.68543908      -1.78856281       0.00000000
Si       0.29111859      -2.49163695       2.82496618       0.00000000
