10
Lattice="16.28999089631971 0.0 0.0 0.0 16.28999089631971 0.0 0.0 0.0 34.395419527814205" Properties=species:S:1:pos:R:3:initial_magmoms:R:1 pbc="T T T"
Si      -0.87635313       1.62266319      -1.38537948       0.00000000
Si      -1.24308990      -1.73431485      -1.01576610       0.00000000
Si       2.32839486      -0.41384745      -0.14652457       0.00000000
Si      -0.82821618       1.01771775       2.01607756       0.00000000
Si      -3.12844563       1.54992834      -0.74438609       0.00000000
Si      -3.52142559      -0.96202224      -0.14556150       0.00000000
Si       3.23330436       1.70295660       0.69901850       0.00000000
Si       0.25275564       3.61991493      -0.85789103       0.00000000
Si      -1.66491945      -0.80990622       3.26101921       0.00000000
Si      -1.12612770      -1.31315319      -3.38447678       0.00000000
