10
Lattice="16.28999089631971 0.0 0.0 0.0 16.28999089631971 0.0 0.0 0.0 34.395419527814205" Properties=species:S:1:pos:R:3:initial_magmoms:R:1 pbc="T T T"
Si       1.25188650      -1.38093588       1.54046508       0.00000000
Si      -1.10490183      -1.73654658      -1.29784451       0.00000000
Si      -1.45223721       1.32348747       1.52214263       0.00000000
Si       1.85880303       0.91864197      -1.45737055       0.00000000
Si       2.58434334       2.58504122       0.18796763       0.00000000
Si       2.50830162      -2.85099435       0.16566907       0.00000000
Si      -2.80722312       2.60688448       0.00067415       0.00000000
Si       0.65091582      -3.67793991      -1.15848527       0.00000000
Si       2.61021186      -0.02681334       2.91516477       0.00000000
Si       3.55296303      -1.21919247      -1.17353939       0.00000000
