10
Lattice="16.28999089631971 0.0 0.0 0.0 16.28999089631971 0.0 0.0 0.0 34.395419527814205" Properties=species:S:1:pos:R:3:initial_magmoms:R:1 pbc="T T T"
Si       1.18503234       1.79708022       0.92434302       0.00000000
Si       0.32549049      -0.12267999      -2.34129752       0.00000000
Si      -2.38404150       0.57549312       0.03955475       0.00000000
Si       1.05120999      -1.79716167       1.31521279       0.00000000
Si      -0.35885241       3.52024686       0.65017698       0.00000000
Si      -0.31628664      -3.54747330       0.55283789       0.00000000
Si       2.63652021      -0.49133898      -2.47402951       0.00000000
Si      -2.35470321       2.53552221       1.30176417       0.00000000
Si      -1.11118977      -1.85166801      -3.07429871       0.00000000
Si      -3.43793934      -0.94607433       1.46944193       0.00000000
