10
Lattice="16.28999089631971 0.0 0.0 0.0 16.28999089631971 0.0 0.0 0.0 34.395419527814205" Properties=species:S:1:pos:R:3:initial_magmoms:R:1 pbc="T T T"
Si       1.99585080       0.98472465      -0.65158719       0.00000000
Si      -0.02933829      -1.96002909      -1.26220942       0.00000000
Si      -1.76697630       1.59597270       0.03718147       0.00000000
Si       0.24713559      -0.83768067       2.21640768       0.00000000
Si       2.07003546       2.59865315       1.05879479       0.00000000
Si       3.53973555      -0.73844199      -0.37742115       0.00000000
Si      -0.49339152       3.50923157      -0.81579102       0.00000000
Si      -1.39199679      -2.49926067       2.26260075       0.00000000
Si      -1.08323613      -3.48159654       0.16767776       0.00000000
Si      -2.01477978       1.84921215       2.48077102       0.00000000
