10
Lattice="16.28999089631971 0.0 0.0 0.0 16.28999089631971 0.0 0.0 0.0 34.395419527814205" Properties=species:S:1:pos:R:3:initial_magmoms:R:1 pbc="T T T"
Si       1.81328944      -1.57257700      -0.10201687       0.00000000
Si      -0.77493159      -0.30997101       2.29032348       0.00000000
Si       0.81433826       1.93942387      -1.29522904       0.00000000
Si      -1.87975197      -0.83266891      -1.38868144       0.00000000
Si       2.75798564      -0.39776922       2.18146191       0.00000000
Si      -0.58181364      -2.12840809      -2.88691236       0.00000000
Si       2.13706622       0.60222012      -2.87638736       0.00000000
Si       0.74394801      -3.40946998      -1.33017480       0.00000000
Si       3.49836614      -0.72199919      -1.46490174       0.00000000
Si      -2.85293286      -2.68204003      -0.07353745       0.00000000
