10
Lattice="16.28999089631971 0.0 0.0 0.0 16.28999089631971 0.0 0.0 0.0 34.395419527814205" Properties=species:S:1:pos:R:3:initial_magmoms:R:1 pbc="T T T"
Si      -1.15955478      -1.97641913      -0.54062751       0.00000000
Si      -0.85224393       0.95106070       1.98812515       0.00000000
Si       2.44281582      -0.13423123      -0.07023549       0.00000000
Si      -0.24970941       3.46842282       0.05737159       0.00000000
Si       0.36481455      -2.50630025      -2.43409641       0.00000000
Si      -3.60808839       0.75664769      -0.36239034       0.00000000
Si      -2.94446637       1.86568230       1.61053202       0.00000000
Si       2.88000684      -2.26607162       1.29347487       0.00000000
Si       3.21774741       0.17573978      -2.36055896       0.00000000
Si       0.63835623       2.41465530       3.13531622       0.00000000
