10
Lattice="16.28999089631971 0.0 0.0 0.0 16.28999089631971 0.0 0.0 0.0 34.395419527814205" Properties=species:S:1:pos:R:3:initial_magmoms:R:1 pbc="T T T"
Si       0.47542365       0.14895739      -2.27594618       0.00000000
Si       0.56490462       1.32095773       1.84768857       0.00000000
Si      -2.33456877       0.26339464       0.01234796       0.00000000
Si       1.37950236      -1.86216433       0.50685119       0.00000000
Si      -0.56884680      -3.09592006       0.84791636       0.00000000
Si       0.51044715      -2.17066435      -2.66492420       0.00000000
Si      -1.03703769       2.99488555       1.55037440       0.00000000
Si       0.05271444      -0.31179060       3.51903173       0.00000000
Si      -2.45654829       1.91619433      -1.67007053       0.00000000
Si       2.39391324       1.51293538      -2.12133868       0.00000000
