10
Lattice="16.28999089631971 0.0 0.0 0.0 16.28999089631971 0.0 0.0 0.0 34.395419527814205" Properties=species:S:1:pos:R:3:initial_magmoms:R:1 pbc="T T T"
Si       1.35415512      -1.35578412      -1.35892939       0.00000000
Si       1.35700587       1.35767376       1.35710643       0.00000000
Si      -1.35788553      -1.35721764       1.35693445       0.00000000
Si      -1.35850455       1.35666378      -1.35910137       0.00000000
Si       2.71242471       2.71355562      -0.00065351       0.00000000
Si      -0.00008145      -2.71474479       2.71431605       0.00000000
Si       2.71471603      -0.00006516       2.71435044       0.00000000
Si      -2.71524978       0.00022806       2.71417847       0.00000000
Si      -0.00065160       2.71528236       2.71441924       0.00000000
Si      -2.71498914       2.71557558       0.00013758       0.00000000
