10
Lattice="16.28999089631971 0.0 0.0 0.0 16.28999089631971 0.0 0.0 0.0 34.395419527814205" Properties=species:S:1:pos:R:3:initial_magmoms:R:1 pbc="T T T"
Si      -0.64638720      -1.86917976       1.27799692       0.00000000
Si       2.23024761      -0.65500461      -0.42069061       0.00000000
Si      -0.13051548       2.13503256       1.14928919       0.00000000
Si      -1.53445284      -0.81541224      -1.79994771       0.00000000
Si       3.28288690       0.46053459       1.43652550       0.00000000
Si       1.75521492       1.91835927       2.51829644       0.00000000
Si       2.56818366       0.47232855      -2.53855536       0.00000000
Si      -1.78525368      -0.89961525       3.06370492       0.00000000
Si       2.30677803      -3.03992577      -0.22811055       0.00000000
Si       1.20526452      -3.31156804       1.80355923       0.00000000
