10
Lattice="16.28999089631971 0.0 0.0 0.0 16.28999089631971 0.0 0.0 0.0 34.395419527814205" Properties=species:S:1:pos:R:3:initial_magmoms:R:1 pbc="T T T"
Si       1.99425179       1.22627862       0.32001516       0.00000000
Si       0.03005505      -1.24936155       2.03373350       0.00000000
Si      -1.71375687       1.68865398       0.06480101       0.00000000
Si       0.33249519      -0.47460915      -2.34755749       0.00000000
Si       0.56092986       1.79496252      -3.03068529       0.00000000
Si      -1.56090780       2.38483971      -2.21169550       0.00000000
Si       1.20065512       2.88710928       1.83661324       0.00000000
Si       2.58426908       2.01135888      -1.86612453       0.00000000
Si      -1.16348067       3.18058992       1.92979049       0.00000000
Si      -2.15513442      -1.48419819       2.93093852       0.00000000
