10
Lattice="16.28999089631971 0.0 0.0 0.0 16.28999089631971 0.0 0.0 0.0 34.395419527814205" Properties=species:S:1:pos:R:3:initial_magmoms:R:1 pbc="T T T"
Si      -0.76082445      -2.12884236      -0.69193304       0.00000000
Si       0.10059075      -0.32075010       2.37937327       0.00000000
Si       2.19656708       0.62307621      -0.78301216       0.00000000
Si      -1.38877137       1.91387952      -0.63779462       0.00000000
Si       0.07947891       3.40627158       0.49474399       0.00000000
Si       2.32455761       2.59284672       0.48937830       0.00000000
Si      -1.72625130      -2.79257841       1.41843350       0.00000000
Si      -2.02124691       0.26912709       3.19836306       0.00000000
Si      -1.40312286       1.85987817      -2.99831919       0.00000000
Si      -2.64655485      -1.91216907      -2.06094029       0.00000000
