10
Lattice="16.28999089631971 0.0 0.0 0.0 16.28999089631971 0.0 0.0 0.0 34.395419527814205" Properties=species:S:1:pos:R:3:initial_magmoms:R:1 pbc="T T T"
Si      -2.20786515      -0.85040316       0.07422536       0.00000000
Si       0.15284907       0.69618573      -2.27649651       0.00000000
Si       1.71375687      -1.68865398      -0.06480101       0.00000000
Si       0.55027620       1.49193594       1.86498948       0.00000000
Si       2.91441199       1.19845530       1.77181224       0.00000000
Si      -0.45419778       2.91623580      -2.19535767       0.00000000
Si       3.70800866      -0.46237536       0.25521416       0.00000000
Si      -1.29494097       3.56229720      -0.07560117       0.00000000
Si       2.04625206      -2.16326313      -2.41235849       0.00000000
Si       2.27468673       0.10630854      -3.09548630       0.00000000
