10
Lattice="16.28999089631971 0.0 0.0 0.0 16.28999089631971 0.0 0.0 0.0 34.395419527814205" Properties=species:S:1:pos:R:3:initial_magmoms:R:1 pbc="T T T"
Si      -0.87200370       2.10400011      -0.41797337       0.00000000
Si       0.84074319      -0.64606140      -2.11975649       0.00000000
Si       1.84153563       0.28657368       1.52691671       0.00000000
Si      -2.18865924      -0.73860489       0.78707082       0.00000000
Si       1.84521717      -2.07036126       1.94059065       0.00000000
Si       1.07634546       3.33775584      -0.75903854       0.00000000
Si      -1.49244093       1.84081887      -2.78768152       0.00000000
Si      -0.99698058      -0.39299625      -3.53812120       0.00000000
Si       1.29494097      -3.56229720       0.07560117       0.00000000
Si       1.06360668       1.45603278       3.39090872       0.00000000
