10
Lattice="16.28999089631971 0.0 0.0 0.0 16.28999089631971 0.0 0.0 0.0 34.395419527814205" Properties=species:S:1:pos:R:3:initial_magmoms:R:1 pbc="T T T"
Si       1.29793833      -1.29573918      -1.49823092       0.00000000
Si      -0.97318089      -1.84937112       1.31514400       0.00000000
Si       1.87975197       0.83266891       1.38868144       0.00000000
Si      -1.41406974       1.42475502      -1.46992347       0.00000000
Si       2.62369998      -2.57680107       0.05850664       0.00000000
Si       2.69409023       2.77209278       0.09345241       0.00000000
Si       1.10482038       0.52269790       3.67900492       0.00000000
Si      -2.63748132      -2.84908842       0.05090525       0.00000000
Si      -0.05651001      -2.65274505      -2.86761652       0.00000000
Si       2.65816632       0.06170438      -2.86527763       0.00000000
