10
Lattice="16.28999089631971 0.0 0.0 0.0 16.28999089631971 0.0 0.0 0.0 34.395419527814205" Properties=species:S:1:pos:R:3:initial_magmoms:R:1 pbc="T T T"
Si      -2.12064849      -0.52642764       0.79047597       0.00000000
Si       1.82944130      -1.33920090       0.65554267       0.00000000
Si       0.61913403      -0.85024026      -2.15958641       0.00000000
Si       0.22913514       2.38809838       0.20781724       0.00000000
Si       1.33064865       2.65974065      -1.82385254       0.00000000
Si      -1.72183671      -0.37862847       3.08293197       0.00000000
Si       3.50572922       0.24206940       0.67858761       0.00000000
Si       2.71542475      -1.98162963      -1.53376140       0.00000000
Si       0.18194301       1.28160013      -3.52329677       0.00000000
Si      -3.66453324       1.19673900       0.51630993       0.00000000
