10
Lattice="16.28999089631971 0.0 0.0 0.0 16.28999089631971 0.0 0.0 0.0 34.395419527814205" Properties=species:S:1:pos:R:3:initial_magmoms:R:1 pbc="T T T"
Si      -0.84480429       1.10973996      -1.88081138       0.00000000
Si      -1.46131141      -1.86240312       0.16809051       0.00000000
Si       2.16240628      -1.01222802      -0.16090186       0.00000000
Si       0.21597934       1.12441725       2.13072864       0.00000000
Si       1.82518699      -2.20850046       1.84645034       0.00000000
Si       0.64606792      -0.84699855       3.38210349       0.00000000
Si      -2.37247627       2.56756464      -0.79904044       0.00000000
Si       0.08853126      -3.48986860       0.86174332       0.00000000
Si       1.11466606       1.75596426      -2.95188534       0.00000000
Si       2.15012362      -2.21345262      -2.19043912       0.00000000
