10
Lattice="16.28999089631971 0.0 0.0 0.0 16.28999089631971 0.0 0.0 0.0 34.395419527814205" Properties=species:S:1:pos:R:3:initial_magmoms:R:1 pbc="T T T"
Si       0.44730711       1.08898650      -2.06620280       0.00000000
Si      -1.28570454       1.64833623       1.15902310       0.00000000
Si      -1.58200335      -1.81929978      -0.14707490       0.00000000
Si       2.11250349      -0.76918122       0.89383427       0.00000000
Si      -3.30904376       1.43193987      -0.00553767       0.00000000
Si      -3.53747843      -0.83763180       0.67759014       0.00000000
Si       2.48723865       2.27043504      -1.74429589       0.00000000
Si       1.51083234      -1.48906890       3.14962472       0.00000000
Si       0.93007755      -0.53209656      -3.66280467       0.00000000
Si      -0.70376058       3.76152390       0.36108332       0.00000000
