10
Lattice="16.28999089631971 0.0 0.0 0.0 16.28999089631971 0.0 0.0 0.0 34.395419527814205" Properties=species:S:1:pos:R:3:initial_magmoms:R:1 pbc="T T T"
Si       1.39914810      -1.21275792       1.48526728       0.00000000
Si       1.38730527       1.14477975      -1.62504144       0.00000000
Si      -1.31162193       1.49864742       1.46904639       0.00000000
Si      -0.98010414      -1.96613784      -1.19820439       0.00000000
Si       2.66199777      -2.63401155       0.04785437       0.00000000
Si       0.04116483      -2.57197923       2.85618348       0.00000000
Si       2.74339890       2.72140740      -0.11915612       0.00000000
Si      -0.08047260       1.28691000      -3.66218009       0.00000000
Si      -2.67412405       0.14270040       2.85508282       0.00000000
Si      -2.77621999      -2.75933052       0.11782158       0.00000000
