10
Lattice="16.28999089631971 0.0 0.0 0.0 16.28999089631971 0.0 0.0 0.0 34.395419527814205" Properties=species:S:1:pos:R:3:initial_magmoms:R:1 pbc="T T T"
Si       1.77421883      -1.38745188       0.70895878       0.00000000
Si      -2.17797041      -0.44963658       0.85961081       0.00000000
Si       0.40066721       2.25197847       0.70968109       0.00000000
Si      -0.90045974      -0.66303558      -2.37266616       0.00000000
Si      -2.98391816       1.41876126      -0.36445407       0.00000000
Si       3.52099553       0.10262700       0.00942435       0.00000000
Si       0.82844098       1.91220165      -2.91594211       0.00000000
Si       1.50764927      -3.39340248      -0.43885140       0.00000000
Si       1.42171952      -1.68643854       3.07491783       0.00000000
Si      -1.69562351       3.38336784       0.08385608       0.00000000
