10
Lattice="16.28999089631971 0.0 0.0 0.0 16.28999089631971 0.0 0.0 0.0 34.395419527814205" Properties=species:S:1:pos:R:3:initial_magmoms:R:1 pbc="T T T"
Si      -0.12799053      -1.96977051      -1.27239047       0.00000000
Si       0.38131632      -0.58401279       2.25661595       0.00000000
Si      -2.24507870       0.81342486       0.00536569       0.00000000
Si       1.98834111       1.33152831      -0.14315382       0.00000000
Si      -2.32455761      -2.59284672      -0.48937830       0.00000000
Si       1.53238401      -3.25655019      -0.17067017       0.00000000
Si      -2.03502630       2.61107523      -1.44832313       0.00000000
Si      -1.00473299       0.89208927       3.42420351       0.00000000
Si       3.56061933      -0.13437621      -1.16438879       0.00000000
Si       1.69111377       3.14814024      -1.56619630       0.00000000
