10
Lattice="16.28999089631971 0.0 0.0 0.0 16.28999089631971 0.0 0.0 0.0 34.395419527814205" Properties=species:S:1:pos:R:3:initial_magmoms:R:1 pbc="T T T"
Si       1.35861929      -1.35543989      -1.36009883       0.00000000
Si      -1.35654645       1.35861650      -1.36003004       0.00000000
Si      -1.36022799      -1.35744356       1.36704671       0.00000000
Si       1.35865187       1.37318465       1.37757172       0.00000000
Si       2.71310999      -2.71238060       0.00020637       0.00000000
Si       2.71433174       2.71468896      -0.00275164       0.00000000
Si      -2.71467633      -2.71444943      -0.00233889       0.00000000
Si      -0.00003961      -2.71370009      -2.71717087       0.00000000
Si      -2.71550712       2.71569894       0.00374910       0.00000000
Si      -2.71431795       0.00027382      -2.71761801       0.00000000
