10
Lattice="16.28999089631971 0.0 0.0 0.0 16.28999089631971 0.0 0.0 0.0 34.395419527814205" Properties=species:S:1:pos:R:3:initial_magmoms:R:1 pbc="T T T"
Si       1.18095984       1.62409671       1.12765446       0.00000000
Si      -2.31006535       0.42577173       0.15815023       0.00000000
Si       0.53846595      -1.87282872       1.34149090       0.00000000
Si       0.83684988       0.24192279      -2.22875564       0.00000000
Si      -1.23212673      -0.17767503      -3.16826705       0.00000000
Si       3.24459333       0.50246505       1.07582053       0.00000000
Si       0.20934279      -0.46538901       3.48828221       0.00000000
Si      -2.61817604       1.29842703      -2.00067949       0.00000000
Si       2.86099641      -1.81208331       1.46022396       0.00000000
Si      -3.19768465      -1.41511230       1.33241051       0.00000000
