10
Lattice="16.28999089631971 0.0 0.0 0.0 16.28999089631971 0.0 0.0 0.0 34.395419527814205" Properties=species:S:1:pos:R:3:initial_magmoms:R:1 pbc="T T T"
Si       0.10508679       2.43121734      -0.21363007       0.00000000
Si       1.46777787      -0.14213025       2.03713865       0.00000000
Si      -2.45464562      -0.56342223       0.21142876       0.00000000
Si       0.32912316      -1.40743971      -2.14679131       0.00000000
Si       0.97161705       2.08948572      -2.36062775       0.00000000
Si      -0.20934279       0.46538901      -3.48828221       0.00000000
Si       2.65165362      -1.34669430      -2.02805826       0.00000000
Si      -2.17437291       2.88925956      -0.02063726       0.00000000
Si       3.61263330      -1.34627076       0.28617005       0.00000000
Si       0.08047260      -1.28691000       3.66218009       0.00000000
