10
Lattice="10.86 0.0 0.0 0.0 10.86 0.0 0.0 0.0 10.86" Properties=species:S:1:pos:R:3:initial_magmoms:R:1 pbc="T T T"
Si      -1.54092540       1.14750018      -1.03287288       0.00000000
Si       1.17407460      -1.56749982      -1.03287288       0.00000000
Si       1.17407460       1.14750018       1.68212712       0.00000000
Si      -0.18342540       2.50500018      -2.39037288       0.00000000
Si       2.53157460      -0.20999982      -2.39037288       0.00000000
Si       0.02876814      -2.70145758      -2.29586916       0.00000000
Si       2.53157460       2.50500018       0.32462712       0.00000000
Si      -2.89842540       2.50500018       0.32462712       0.00000000
Si       2.53157460      -2.92499982       0.32462712       0.00000000
Si      -0.18342540       2.50500018       3.03962712       0.00000000
