10
Lattice="10.86 0.0 0.0 0.0 10.86 0.0 0.0 0.0 10.86" Properties=species:S:1:pos:R:3:initial_magmoms:R:1 pbc="T T T"
Si       1.28175150       1.18046028       1.41335298       0.00000000
Si      -1.52628612       1.12680102      -1.49921214       0.00000000
Si       1.18871388      -1.58819898      -1.49921214       0.00000000
Si      -1.52628612      -1.58819898       1.21578786       0.00000000
Si       2.58079212       2.44228368      -0.18914862       0.00000000
Si      -0.27821148       2.53297554       2.58052062       0.00000000
Si      -0.16878612       2.48430102      -2.85671214       0.00000000
Si      -2.88378612       2.48430102      -0.14171214       0.00000000
Si       2.54621388      -0.23069898      -2.85671214       0.00000000
Si      -2.88378612      -0.23069898       2.57328786       0.00000000
