10
Lattice="16.28999089631971 0.0 0.0 0.0 16.28999089631971 0.0 0.0 0.0 34.28971787722196" Properties=species:S:1:pos:R:3:initial_magmoms:R:1 pbc="T T T"
Si       0.34144329       0.93067443       2.06619668       0.00000000
Si      -0.96950817       1.83460002      -1.05005462       0.00000000
Si      -1.55036070      -1.75858695       0.20542981       0.00000000
Si       2.05033922       0.10261071      -1.16540529       0.00000000
Si      -0.68146839       0.89117265      -3.20766774       0.00000000
Si       1.61182871       2.76875333       1.46129143       0.00000000
Si       0.71535091       3.40660457      -0.64780171       0.00000000
Si       1.35534266      -0.42692832      -3.31557754       0.00000000
Si      -1.83761856       0.98494457       3.02764662       0.00000000
Si      -0.11186180      -3.67231986       0.16891124       0.00000000
