10
Lattice="16.28999089631971 0.0 0.0 0.0 16.28999089631971 0.0 0.0 0.0 34.28971787722196" Properties=species:S:1:pos:R:3:initial_magmoms:R:1 pbc="T T T"
Si      -0.69499656      -0.52953903      -2.15017225       0.00000000
Si      -2.05033922      -0.10261071       1.16540529       0.00000000
Si       1.84042791      -0.49212090       1.39782113       0.00000000
Si       0.37348083       2.32048511      -0.64965336       0.00000000
Si       1.77021801       1.74254849       2.22012331       0.00000000
Si       1.18871388       0.62187075      -3.11463968       0.00000000
Si      -3.01984739       1.73198931       0.11535068       0.00000000
Si      -2.73180761       0.78856194      -2.04226245       0.00000000
Si      -0.80997138      -2.84188824      -1.92680890       0.00000000
Si      -1.33498831       3.30399386       0.51760358       0.00000000
