10
Lattice="16.28999089631971 0.0 0.0 0.0 16.28999089631971 0.0 0.0 0.0 34.28971787722196" Properties=species:S:1:pos:R:3:initial_magmoms:R:1 pbc="T T T"
Si      -0.59116410       1.49794695       1.76619578       0.00000000
Si       1.81108962      -1.56418209      -0.13287273       0.00000000
Si      -1.80099959      -1.24502841      -0.98655002       0.00000000
Si       1.41434667       0.80710434      -1.76588717       0.00000000
Si      -0.00842193      -3.04333038      -1.04230514       0.00000000
Si       3.40965990       0.46584513      -0.44034880       0.00000000
Si      -1.90867161       0.06322149       3.14157911       0.00000000
Si       2.69169444      -1.88867889       1.97081502       0.00000000
Si      -1.46139219       3.50023230       0.91896495       0.00000000
Si       1.40439348      -0.39570039      -3.81151001       0.00000000
