10
Lattice="16.28999089631971 0.0 0.0 0.0 16.28999089631971 0.0 0.0 0.0 34.28971787722196" Properties=species:S:1:pos:R:3:initial_magmoms:R:1 pbc="T T T"
Si       1.35637056       1.35777150       1.35780844       0.00000000
Si      -1.36083402      -1.35343347       1.35821991       0.00000000
Si      -1.38401469       1.35824391      -1.35486981       0.00000000
Si       1.35584928      -1.33250245      -1.45780417       0.00000000
Si       2.18575962       0.69292773      -2.60253378       0.00000000
Si      -2.31790410      -0.33801750      -2.63389003       0.00000000
Si       0.31038966       2.23296804      -2.72076517       0.00000000
Si      -0.42720525      -2.10096691      -2.86001580       0.00000000
Si       2.70169650      -2.70022130      -0.00775634       0.00000000
Si       2.71202436       0.00273672       2.71636782       0.00000000
