10
Lattice="16.28999089631971 0.0 0.0 0.0 16.28999089631971 0.0 0.0 0.0 34.28971787722196" Properties=species:S:1:pos:R:3:initial_magmoms:R:1 pbc="T T T"
Si      -1.78305453      -0.76846446      -1.40221163       0.00000000
Si      -1.35584928       1.33250245       1.45780417       0.00000000
Si       1.34584722      -1.36771884       1.45004783       0.00000000
Si       0.82991034       2.02543018      -1.14472961       0.00000000
Si      -1.26169308       0.53940751      -3.43439289       0.00000000
Si      -2.58333336      -2.65537818      -0.05508989       0.00000000
Si       2.63015082      -2.73803364       0.03976924       0.00000000
Si      -2.73986397       2.69074636       0.10293436       0.00000000
Si       2.82172122       2.67502651       0.01404165       0.00000000
Si       0.00052128       2.69027395       2.81561260       0.00000000
