10
Lattice="16.28999089631971 0.0 0.0 0.0 16.28999089631971 0.0 0.0 0.0 34.28971787722196" Properties=species:S:1:pos:R:3:initial_magmoms:R:1 pbc="T T T"
Si       0.38170728      -1.45180945       1.85922383       0.00000000
Si       0.91196307       2.10329475       0.74854496       0.00000000
Si       1.54979802      -0.31530502      -1.85692642       0.00000000
Si      -2.14407351      -0.27676288      -1.24204286       0.00000000
Si       2.84234436       0.54201391       0.08496997       0.00000000
Si      -0.51961842      -1.50810769      -2.67295358       0.00000000
Si      -1.02574872       2.22152757       2.22958728       0.00000000
Si      -2.95930656       1.42185147       1.22294347       0.00000000
Si       0.11404629      -3.49780087       0.74593894       0.00000000
Si       0.41643756       3.48383967      -1.29574058       0.00000000
