10
Lattice="16.28999089631971 0.0 0.0 0.0 16.28999089631971 0.0 0.0 0.0 34.28971787722196" Properties=species:S:1:pos:R:3:initial_magmoms:R:1 pbc="T T T"
Si       1.29007026      -1.32947577      -1.41297719       0.00000000
Si      -1.34431596      -1.36392912       1.34545727       0.00000000
Si       1.37142252       1.34817669       1.34617736       0.00000000
Si      -1.38350970       1.29876912      -1.40291316       0.00000000
Si       2.11975254       0.64096263      -2.61484859       0.00000000
Si      -2.22208632      -0.52191531      -2.65043140       0.00000000
Si      -0.46182150      -2.23725231      -2.74813524       0.00000000
Si       0.27225477       2.29897512      -2.74813524       0.00000000
Si      -2.70356985      -0.00764001       2.70333086       0.00000000
Si       0.01205460       2.70754461       2.70374234       0.00000000
