10
Lattice="16.28999089631971 0.0 0.0 0.0 16.28999089631971 0.0 0.0 0.0 34.28971787722196" Properties=species:S:1:pos:R:3:initial_magmoms:R:1 pbc="T T T"
Si      -1.35834165      -1.35661491       1.35835364       0.00000000
Si       1.35925389      -1.35628911      -1.35787359       0.00000000
Si       1.35723393       1.35798327       1.35828506       0.00000000
Si      -1.36166481       1.35861858      -1.35879941       0.00000000
Si       2.70356985       0.00764001      -2.70333086       0.00000000
Si       2.71510317      -2.71401174       0.00061722       0.00000000
Si       2.71430496       0.00097740       2.71567859       0.00000000
Si      -0.00047241      -2.71443528       2.71567859       0.00000000
Si       2.71562445       2.71518462       0.00041148       0.00000000
Si      -2.71565703       0.00081450       2.71533570       0.00000000
