10
Lattice="16.28999089631971 0.0 0.0 0.0 16.28999089631971 0.0 0.0 0.0 34.28971787722196" Properties=species:S:1:pos:R:3:initial_magmoms:R:1 pbc="T T T"
Si       1.88499735      -0.91536768       1.08386430       0.00000000
Si      -1.21907844      -1.29316536      -1.60853156       0.00000000
Si      -1.00662426       0.58932333       2.11595109       0.00000000
Si       1.33001334       1.42053687      -1.54286672       0.00000000
Si       2.66660784       2.53136826       0.06004133       0.00000000
Si       3.08998494       1.08869328       1.95574944       0.00000000
Si       3.09632175      -2.35880829      -0.32585537       0.00000000
Si      -2.51353071       0.12111615      -3.05374111       0.00000000
Si       1.40817276      -2.43840123       2.79022448       0.00000000
Si       0.21234015      -2.58139485      -3.05723866       0.00000000
