10
Lattice="16.28999089631971 0.0 0.0 0.0 16.28999089631971 0.0 0.0 0.0 34.28971787722196" Properties=species:S:1:pos:R:3:initial_magmoms:R:1 pbc="T T T"
Si       1.40828679       1.53924210      -1.11379924       0.00000000
Si       1.06513794      -1.23131223       1.76201243       0.00000000
Si      -1.42120476       1.50772095       1.23326468       0.00000000
Si      -1.28102931      -1.14168465      -1.70653163       0.00000000
Si       1.29973023       0.58205799       3.26050823       0.00000000
Si      -0.24682608       3.03152013      -1.90074870       0.00000000
Si      -3.48628806       0.46011105       1.29649496       0.00000000
Si      -3.10604688       0.27280863      -2.21669434       0.00000000
Si       2.22042474       3.10871844       0.46558605       0.00000000
Si      -1.73597643      -3.34974528      -0.86711887       0.00000000
