10
Lattice="16.28999089631971 0.0 0.0 0.0 16.28999089631971 0.0 0.0 0.0 34.28971787722196" Properties=species:S:1:pos:R:3:initial_magmoms:R:1 pbc="T T T"
Si       1.17672444       1.90648386      -0.57044407       0.00000000
Si      -2.13369678       0.25057278      -0.94931137       0.00000000
Si       1.21295340      -1.68384843      -1.10724990       0.00000000
Si       0.44507538      -0.91054584       2.54234397       0.00000000
Si       1.96669170      -2.70381420       0.84023572       0.00000000
Si      -1.57713264      -0.77818959      -3.00895872       0.00000000
Si      -0.53318799      -2.74849767      -2.17729543       0.00000000
Si       0.77815701       3.26267523       1.26069647       0.00000000
Si       0.20136069       2.57540013      -2.57653084       0.00000000
Si       3.39923430       1.20635595      -0.75530004       0.00000000
