10
Lattice="16.28999089631971 0.0 0.0 0.0 16.28999089631971 0.0 0.0 0.0 34.28971787722196" Properties=species:S:1:pos:R:3:initial_magmoms:R:1 pbc="T T T"
Si       0.88060482      -0.32449680       2.10368775       0.00000000
Si      -1.81108962       1.56418209       0.13287273       0.00000000
Si      -1.81951155      -1.47914829      -0.90943241       0.00000000
Si       1.59857028       2.03002722      -0.30747607       0.00000000
Si      -0.39674295       2.37128643      -1.63301444       0.00000000
Si      -0.91919583      -1.20244635       3.32820444       0.00000000
Si      -3.61208921       0.31915368      -0.85367729       0.00000000
Si       3.18440178      -2.15342397      -0.40818503       0.00000000
Si      -0.40669614       1.16848170      -3.67863728       0.00000000
Si       2.64086964      -2.03983380       2.00598391       0.00000000
