10
Lattice="16.28999089631971 0.0 0.0 0.0 16.28999089631971 0.0 0.0 0.0 34.28971787722196" Properties=species:S:1:pos:R:3:initial_magmoms:R:1 pbc="T T T"
Si      -1.35483930       1.35786924       1.36034245       0.00000000
Si       1.36166481      -1.35861858       1.35879941       0.00000000
Si      -1.35255870      -1.35050616      -1.38543225       0.00000000
Si       1.36101321       1.36402686      -1.37235071       0.00000000
Si      -2.71084171      -2.71363707      -0.00209167       0.00000000
Si      -2.71166109       2.71485882       0.00274318       0.00000000
Si      -2.71169367      -0.00027693       2.71708447       0.00000000
Si       2.68172496      -0.05220945      -2.74744461       0.00000000
Si       0.00311139       2.71480995       2.71684445       0.00000000
Si       2.71855665       2.71362078      -0.00041148       0.00000000
