10
Lattice="16.28999089631971 0.0 0.0 0.0 16.28999089631971 0.0 0.0 0.0 34.28971787722196" Properties=species:S:1:pos:R:3:initial_magmoms:R:1 pbc="T T T"
Si      -1.35764118      -1.35656604      -1.35708492       0.00000000
Si       1.35984033      -1.35337320       1.35927947       0.00000000
Si       1.35804843       1.35857767      -1.35705063       0.00000000
Si      -1.35791811       1.35619703       1.36154259       0.00000000
Si       0.00065160      -2.71448415      -2.71475277       0.00000000
Si       2.71536381       0.00112401      -2.71413556       0.00000000
Si       2.71396287       2.71558277      -0.00048006       0.00000000
Si      -2.71513575       0.00096111      -2.71499280       0.00000000
Si      -2.71581993       2.71446853      -0.00048006       0.00000000
Si       0.00032580       2.71567562      -2.71464990       0.00000000
