10
Lattice="16.28999089631971 0.0 0.0 0.0 16.28999089631971 0.0 0.0 0.0 34.28971787722196" Properties=species:S:1:pos:R:3:initial_magmoms:R:1 pbc="T T T"
Si       1.82578320       0.99824930      -1.04954027       0.00000000
Si      -1.15230573      -1.82804751      -0.88927004       0.00000000
Si      -1.64172249       1.82412392       0.29928082       0.00000000
Si      -0.20268018       1.32391341       2.34305202       0.00000000
Si       1.85290605       0.16803135       2.24536056       0.00000000
Si      -2.31138810      -0.38099052      -2.37428997       0.00000000
Si       0.42003765       2.37250233      -2.36372873       0.00000000
Si       1.30882005      -2.17145700       2.31815767       0.00000000
Si      -2.26424484       0.09485667       2.63934964       0.00000000
Si       3.44061090       1.24649518       0.65400815       0.00000000
