10
Lattice="16.28999089631971 0.0 0.0 0.0 16.28999089631971 0.0 0.0 0.0 34.28971787722196" Properties=species:S:1:pos:R:3:initial_magmoms:R:1 pbc="T T T"
Si      -0.92222577       1.43262146      -1.58590034       0.00000000
Si      -1.05085161      -1.81811061       1.01144437       0.00000000
Si       1.70346159      -0.66386637      -1.52781352       0.00000000
Si       0.24685866       1.38731083       1.94861718       0.00000000
Si       2.88759798       1.30683660      -1.27310936       0.00000000
Si       1.09072953       2.65987097      -2.03629603       0.00000000
Si       0.60426126      -3.31038864       1.79839384       0.00000000
Si      -0.14788062      -0.03995937       3.84103347       0.00000000
Si      -1.30008861       0.35519598      -3.62031044       0.00000000
Si       0.75549762      -0.80068608      -3.71800190       0.00000000
