10
Lattice="16.28999089631971 0.0 0.0 0.0 16.28999089631971 0.0 0.0 0.0 34.28971787722196" Properties=species:S:1:pos:R:3:initial_magmoms:R:1 pbc="T T T"
Si       2.06156466       1.22905674      -0.29629762       0.00000000
Si      -1.12096377       1.43366076       1.59361553       0.00000000
Si       1.07517258      -2.09323242       0.72197041       0.00000000
Si       0.62252235       1.72926725      -2.34006881       0.00000000
Si      -2.41689843      -1.12487337      -2.02690065       0.00000000
Si      -1.16136297      -0.27497520       3.21185109       0.00000000
Si       2.26424484      -0.09485667      -2.63934964       0.00000000
Si       0.57142062      -1.83989034       3.14028841       0.00000000
Si      -0.70990191      -2.96851041      -2.10765298       0.00000000
Si       2.43942750       2.30648222       1.73811248       0.00000000
