10
Lattice="16.28999089631971 0.0 0.0 0.0 16.28999089631971 0.0 0.0 0.0 34.28971787722196" Properties=species:S:1:pos:R:3:initial_magmoms:R:1 pbc="T T T"
Si       1.56427983      -1.70095293      -0.46325435       0.00000000
Si       0.39473928       1.42727020      -1.89241630       0.00000000
Si      -1.54979802       0.31530502       1.85692642       0.00000000
Si       1.29254634       0.85731894       1.94189639       0.00000000
Si      -2.06941644      -1.19280267      -0.81602716       0.00000000
Si      -0.90297099      -1.77815124      -2.82958910       0.00000000
Si      -0.63783495       2.41859978       2.60547138       0.00000000
Si       2.82193299       2.31247043       0.81630148       0.00000000
Si      -3.69387153       0.03854214       0.61488356       0.00000000
Si      -1.22429124       3.11897204      -1.77991167       0.00000000
