10
Lattice="16.28999089631971 0.0 0.0 0.0 16.28999089631971 0.0 0.0 0.0 34.28971787722196" Properties=species:S:1:pos:R:3:initial_magmoms:R:1 pbc="T T T"
Si       1.87406676      -0.06105492      -1.41119413       0.00000000
Si      -1.84042791       0.49212090      -1.39782113       0.00000000
Si      -0.07020990       2.23466939       0.82230218       0.00000000
Si       0.34831278      -2.11339944       1.09836886       0.00000000
Si       0.33835959      -3.31620417      -0.94725399       0.00000000
Si       1.60640577      -2.10704634      -2.52447902       0.00000000
Si      -1.46694708       2.81260601      -2.04747449       0.00000000
Si       0.46661076       3.61228211      -1.04083068       0.00000000
Si       1.49235948       1.39075453      -3.27041796       0.00000000
Si       3.87167688      -0.33322824      -0.08517571       0.00000000
