10
Lattice="16.28999089631971 0.0 0.0 0.0 16.28999089631971 0.0 0.0 0.0 34.28971787722196" Properties=species:S:1:pos:R:3:initial_magmoms:R:1 pbc="T T T"
Si      -1.70846914       0.98350875       1.16725694       0.00000000
Si       1.93355784       0.79967610       1.00664381       0.00000000
Si      -0.12124647       0.49531374      -2.28462231       0.00000000
Si      -0.37348083      -2.32048511       0.64965336       0.00000000
Si       0.81523305      -1.69861436      -2.46498633       0.00000000
Si       1.39673718      -0.57793662       2.86977667       0.00000000
Si      -0.81199134       0.34565751       3.27635008       0.00000000
Si      -1.06847739      -2.85002414      -1.50051889       0.00000000
Si       2.95930656      -1.42185147      -1.22294347       0.00000000
Si      -3.39332822      -0.58849580       0.76500403       0.00000000
