10
Lattice="16.28999089631971 0.0 0.0 0.0 16.28999089631971 0.0 0.0 0.0 34.28971787722196" Properties=species:S:1:pos:R:3:initial_magmoms:R:1 pbc="T T T"
Si       1.35223290      -1.35859725      -1.35993097       0.00000000
Si      -1.36256076       1.35693665      -1.35993097       0.00000000
Si       1.34682462       1.35014209       1.39740965       0.00000000
Si      -1.35373158      -1.38570381       1.36510872       0.00000000
Si      -2.65887009       0.00873458       2.68711524       0.00000000
Si       2.71327869      -2.71306188       0.00401190       0.00000000
Si       2.71120986      -0.00058415      -2.71660442       0.00000000
Si      -0.22941207       2.51880461       2.88747018       0.00000000
Si      -2.71668330      -2.71201932      -0.00017145       0.00000000
Si       2.71241532       2.71693988       0.00318895       0.00000000
