10
Lattice="16.28999089631971 0.0 0.0 0.0 16.28999089631971 0.0 0.0 0.0 34.28971787722196" Properties=species:S:1:pos:R:3:initial_magmoms:R:1 pbc="T T T"
Si      -0.16324209       2.14627266       0.88549817       0.00000000
Si      -0.38175615       0.21771585      -2.29751525       0.00000000
Si       2.21099283      -0.41694255       0.64409842       0.00000000
Si      -1.52938665      -1.45515149       1.12559491       0.00000000
Si       0.11878668       1.21399596       3.08569915       0.00000000
Si       1.77246603      -0.59103378       2.95193488       0.00000000
Si       2.59024032      -2.25301409      -0.76586128       0.00000000
Si       0.71728128      -3.00442076      -2.09448572       0.00000000
Si      -2.82193299      -2.31247043      -0.81630148       0.00000000
Si      -2.42719371      -0.88520023      -2.70871778       0.00000000
