10
Lattice="16.28999089631971 0.0 0.0 0.0 16.28999089631971 0.0 0.0 0.0 34.28971787722196" Properties=species:S:1:pos:R:3:initial_magmoms:R:1 pbc="T T T"
Si      -0.52097049      -1.58146578      -1.60194794       0.00000000
Si       2.23832745       0.76611870      -0.28244456       0.00000000
Si      -1.12932543       2.06612586      -0.55227050       0.00000000
Si       0.58523454      -1.22950404       2.00840343       0.00000000
Si       2.99729484      -1.68458148      -0.24990360       0.00000000
Si      -2.43676294       1.99324440       1.61593815       0.00000000
Si       2.12731110       0.94693770      -2.70477446       0.00000000
Si       0.66310074       3.54043602       0.11171596       0.00000000
Si       1.68775803      -2.50505991      -2.00852135       0.00000000
Si       1.51912395       0.46675737       3.28742365       0.00000000
