10
Lattice="16.28999089631971 0.0 0.0 0.0 16.28999089631971 0.0 0.0 0.0 34.28971787722196" Properties=species:S:1:pos:R:3:initial_magmoms:R:1 pbc="T T T"
Si      -0.34144329      -0.93067443      -2.06619668       0.00000000
Si       1.27038542       1.83807889      -0.60490525       0.00000000
Si       1.02189776      -0.74045610       1.94944013       0.00000000
Si      -2.17906184       0.05427013       0.96144994       0.00000000
Si      -0.93821996      -0.08558326       2.99781390       0.00000000
Si      -1.31095145       0.90392558      -3.11625130       0.00000000
Si       0.37390763       2.47593013      -2.71399840       0.00000000
Si       3.47911394       0.91448476      -1.01147866       0.00000000
Si      -2.96891507      -2.21636268       0.51722639       0.00000000
Si       1.70889593      -0.82806372      -3.23160198       0.00000000
