10
Lattice="16.28999089631971 0.0 0.0 0.0 16.28999089631971 0.0 0.0 0.0 34.28971787722196" Properties=species:S:1:pos:R:3:initial_magmoms:R:1 pbc="T T T"
Si       1.96693605      -1.29277440       0.14741158       0.00000000
Si      -1.62046404      -1.71980046      -0.00222883       0.00000000
Si      -0.22980303       0.48397590      -2.30985956       0.00000000
Si      -0.14116914       1.69785783       1.70522862       0.00000000
Si       1.79839971      -2.61848718      -1.76379549       0.00000000
Si       3.65151753       0.35738631       0.02386566       0.00000000
Si      -0.39117177      -3.42707391      -1.26772587       0.00000000
Si       1.29551112      -0.97893126      -3.33642570       0.00000000
Si       0.94820832       2.43690255      -2.65875763       0.00000000
Si       1.78116489      -2.50745454       2.18226744       0.00000000
