10
Lattice="16.28999089631971 0.0 0.0 0.0 16.28999089631971 0.0 0.0 0.0 34.28971787722196" Properties=species:S:1:pos:R:3:initial_magmoms:R:1 pbc="T T T"
Si       1.34190504       1.35897696       1.36401145       0.00000000
Si      -1.35270531       1.35286821      -1.35958807       0.00000000
Si       1.36102950      -1.36168110      -1.35708492       0.00000000
Si      -1.36317978      -1.34785089       1.38437955       0.00000000
Si       0.17795196      -2.58018939       2.72198791       0.00000000
Si       2.67745698      -0.00635310       2.68567507       0.00000000
Si      -2.70845685       2.71459818       0.00058293       0.00000000
Si      -2.71057455      -0.00351864      -2.71605578       0.00000000
Si       0.00426798       2.71164969      -2.71605578       0.00000000
Si      -2.71024875      -2.72036484       0.00006858       0.00000000
