10
Lattice="16.28999089631971 0.0 0.0 0.0 16.28999089631971 0.0 0.0 0.0 34.28971787722196" Properties=species:S:1:pos:R:3:initial_magmoms:R:1 pbc="T T T"
Si      -0.47682459      -1.52303355       1.70636018       0.00000000
Si       1.21132440      -1.44344061      -1.40971967       0.00000000
Si      -1.88499735       0.91536768      -1.08386430       0.00000000
Si       1.20498759       2.00406096       0.87188514       0.00000000
Si      -2.89162161       1.50469101       1.03208680       0.00000000
Si      -0.55498401       2.33590455      -2.62673102       0.00000000
Si       0.78161049       3.44673594      -1.02382297       0.00000000
Si       2.63723697      -2.61539208       0.09923450       0.00000000
Si      -0.65453220      -0.34200855       3.65672614       0.00000000
Si       2.56896558      -0.17858727      -2.79975703       0.00000000
