10
Lattice="16.28999089631971 0.0 0.0 0.0 16.28999089631971 0.0 0.0 0.0 34.28971787722196" Properties=species:S:1:pos:R:3:initial_magmoms:R:1 pbc="T T T"
Si      -1.35764118      -1.26485334       1.39003736       0.00000000
Si       1.17985212      -1.50221493      -1.36462866       0.00000000
Si       1.70116470       0.89684595       1.38633407       0.00000000
Si      -1.54113174       1.23233850      -1.33760835       0.00000000
Si       2.49950502       2.57383629      -0.03631283       0.00000000
Si       3.31669287      -0.90054378       1.38479103       0.00000000
Si       2.54353689      -0.14185332      -2.72037629       0.00000000
Si       2.38977558      -2.85786873       0.15221214       0.00000000
Si      -0.17795196       2.58018939      -2.72198791       0.00000000
Si       0.06827139      -2.43680481       2.89899153       0.00000000
