10
Lattice="16.28999089631971 0.0 0.0 0.0 16.28999089631971 0.0 0.0 0.0 34.28971787722196" Properties=species:S:1:pos:R:3:initial_magmoms:R:1 pbc="T T T"
Si      -1.17801135      -1.95292665       0.34889807       0.00000000
Si      -1.72131543       1.66566879      -0.06741362       0.00000000
Si       0.79402347      -0.13396896      -2.25938506       0.00000000
Si       2.02154013      -0.09975996       1.35766785       0.00000000
Si       0.34730280      -3.41583381      -0.67766807       0.00000000
Si      -0.50262795       3.44176749      -0.89170461       0.00000000
Si       1.63439199       1.84847517       2.64812781       0.00000000
Si       2.46894498       1.56007701      -2.16731712       0.00000000
Si      -1.49635053      -0.02111184      -3.36951530       0.00000000
Si      -0.94820832      -2.43690255       2.65875763       0.00000000
