10
Lattice="16.28999089631971 0.0 0.0 0.0 16.28999089631971 0.0 0.0 0.0 34.28971787722196" Properties=species:S:1:pos:R:3:initial_magmoms:R:1 pbc="T T T"
Si      -2.33885304       0.44035128       0.24784622       0.00000000
Si       0.64510029      -0.94703544       2.10508125       0.00000000
Si       0.14116914      -1.69785783      -1.70522862       0.00000000
Si       1.19259090       2.17238553       0.13108966       0.00000000
Si      -2.10426075       2.25372150       1.74634202       0.00000000
Si       1.09361286       0.88467732       3.56757282       0.00000000
Si      -0.49099689       3.73155030       0.89969412       0.00000000
Si      -1.09266804      -2.00552706       3.21562296       0.00000000
Si       2.38431843       2.27587590       2.19855507       0.00000000
Si       2.10810519      -2.99063223      -1.55781704       0.00000000
