10
Lattice="16.28999089631971 0.0 0.0 0.0 16.28999089631971 0.0 0.0 0.0 34.28971787722196" Properties=species:S:1:pos:R:3:initial_magmoms:R:1 pbc="T T T"
Si      -1.73776833      -1.05849162       1.11054171       0.00000000
Si       1.72794546      -1.56840120      -0.04485098       0.00000000
Si       0.44851257       1.83171276       1.46249157       0.00000000
Si      -0.64510029       0.94703544      -2.10508125       0.00000000
Si      -1.77399729       2.53184067       1.64734755       0.00000000
Si       3.23780040      -0.25027956      -1.33095614       0.00000000
Si       1.73921814       3.22291134       0.09347382       0.00000000
Si       0.54749061       3.11942097      -1.97399158       0.00000000
Si      -2.95072173       0.62535681       2.21779161       0.00000000
Si      -2.98395333       1.38738672      -1.85723503       0.00000000
