10
Lattice="16.28999089631971 0.0 0.0 0.0 16.28999089631971 0.0 0.0 0.0 34.28971787722196" Properties=species:S:1:pos:R:3:initial_magmoms:R:1 pbc="T T T"
Si      -1.18579797      -1.88840196       0.78297186       0.00000000
Si      -0.57464604       0.36528696      -2.29079446       0.00000000
Si       2.28854952      -0.69991614       0.18341580       0.00000000
Si      -1.11842253       1.90141767       1.14479716       0.00000000
Si      -2.79715590       1.06541487      -2.10593849       0.00000000
Si       2.11563117      -3.01768992       0.25556141       0.00000000
Si       0.27878706      -3.29040081       1.88819866       0.00000000
Si       3.44582370      -0.23947929      -1.79239313       0.00000000
Si      -3.19572333       2.42160624      -0.27479795       0.00000000
Si      -1.49076306       1.24019028       3.55430513       0.00000000
