10
Lattice="16.28999089631971 0.0 0.0 0.0 16.28999089631971 0.0 0.0 0.0 34.28971787722196" Properties=species:S:1:pos:R:3:initial_magmoms:R:1 pbc="T T T"
Si       0.81208908      -1.59006690       1.47113259       0.00000000
Si       0.43639281       1.84906228       1.33393935       0.00000000
Si       0.74875356      -0.24832476      -2.18442770       0.00000000
Si      -2.32560927       0.37512207       0.27092321       0.00000000
Si       0.13639617       0.19551258       3.13325901       0.00000000
Si      -2.75227695      -1.11581613      -1.49047200       0.00000000
Si       1.01260269       2.01429827      -2.76440431       0.00000000
Si      -1.27189062      -0.71415360      -3.33591136       0.00000000
Si       3.14779815      -1.67876595       0.94571095       0.00000000
Si       2.73513987       2.54430971       0.92390267       0.00000000
