10
Lattice="16.28999089631971 0.0 0.0 0.0 16.28999089631971 0.0 0.0 0.0 34.28971787722196" Properties=species:S:1:pos:R:3:initial_magmoms:R:1 pbc="T T T"
Si      -1.35666127      -1.35658233      -1.35687918       0.00000000
Si       1.35909751       1.35806472      -1.35687918       0.00000000
Si      -1.35561832       1.35835794       1.36130256       0.00000000
Si       1.36108489      -1.35550719       1.35989668       0.00000000
Si      -2.71383322       0.00110772      -2.71492422       0.00000000
Si       0.00135533      -2.71430007      -2.71492422       0.00000000
Si      -2.71474546      -2.71467800      -0.00030861       0.00000000
Si      -2.71383322       2.71577106      -0.00054864       0.00000000
Si       0.00086174       2.71565703      -2.71451274       0.00000000
Si       2.71585903       0.00063531      -2.71434129       0.00000000
