10
Lattice="16.28999089631971 0.0 0.0 0.0 16.28999089631971 0.0 0.0 0.0 34.28971787722196" Properties=species:S:1:pos:R:3:initial_magmoms:R:1 pbc="T T T"
Si      -1.34682462      -1.35014209      -1.39740965       0.00000000
Si       1.36559070       1.36679779      -1.39422071       0.00000000
Si      -1.57623669       1.16866252       1.49006052       0.00000000
Si       1.18938177      -1.51968337       1.57739648       0.00000000
Si       2.71718829      -2.70727324      -0.00678937       0.00000000
Si      -2.70055620      -2.73584590      -0.03230093       0.00000000
Si       2.72064177       2.71802071       0.00579497       0.00000000
Si      -2.72666907       2.71621252      -0.00438909       0.00000000
Si       0.00540828      -2.70873934      -2.75734062       0.00000000
Si      -2.70938538       0.00679456      -2.75734062       0.00000000
