10
Lattice="16.28999089631971 0.0 0.0 0.0 16.28999089631971 0.0 0.0 0.0 34.28971787722196" Properties=species:S:1:pos:R:3:initial_magmoms:R:1 pbc="T T T"
Si       1.83627396       0.80374860      -1.32001772       0.00000000
Si      -1.61552817       1.79738973       0.00154304       0.00000000
Si       0.54136557       0.14538825       2.41790652       0.00000000
Si      -0.92691729      -1.95732495      -1.23257889       0.00000000
Si      -2.13684075      -0.60167115      -2.74941970       0.00000000
Si       0.57555828       2.14068519      -2.76104392       0.00000000
Si      -1.67366718       0.62094222       3.15489584       0.00000000
Si       1.94720841       2.16311652       2.26596869       0.00000000
Si      -3.31669287       0.90054378      -1.38479103       0.00000000
Si       3.35476653       1.80281430       0.21845991       0.00000000
