10
Lattice="16.28999089631971 0.0 0.0 0.0 16.28999089631971 0.0 0.0 0.0 34.28971787722196" Properties=species:S:1:pos:R:3:initial_magmoms:R:1 pbc="T T T"
Si       1.61790651      -1.60516773      -0.36076232       0.00000000
Si      -0.18671598       0.97531488       2.10967607       0.00000000
Si      -1.92621268      -1.34276841      -0.03758155       0.00000000
Si       2.00254599       0.52615071      -1.59344408       0.00000000
Si      -1.09543734      -2.75542092       1.80535466       0.00000000
Si      -0.68220891      -1.04363514       3.36440613       0.00000000
Si      -2.08643786       2.45127033       1.93335824       0.00000000
Si       3.27578868      -1.41076287       1.30112407       0.00000000
Si       1.75391172       1.91384694       3.01934851       0.00000000
Si      -2.10345602      -2.79081909      -1.91110420       0.00000000
