10
Lattice="16.28999089631971 0.0 0.0 0.0 16.28999089631971 0.0 0.0 0.0 34.28971787722196" Properties=species:S:1:pos:R:3:initial_magmoms:R:1 pbc="T T T"
Si       1.70184141       1.45212318      -0.73472620       0.00000000
Si       0.92374141      -1.67096304       1.49355808       0.00000000
Si      -0.19728819      -1.21454982      -2.10501267       0.00000000
Si      -1.81514583       1.25231004       1.05118618       0.00000000
Si       0.87226338       3.27311712       0.48842301       0.00000000
Si       3.60156329      -0.02383227      -0.55840837       0.00000000
Si      -3.49972731      -0.39785067       1.17473210       0.00000000
Si       3.10607036      -2.04278229       0.69632169       0.00000000
Si       1.30616545       2.48117877       2.63358896       0.00000000
Si      -1.88204886      -2.86190865      -1.81063527       0.00000000
