10
Lattice="16.28999089631971 0.0 0.0 0.0 16.28999089631971 0.0 0.0 0.0 34.28971787722196" Properties=species:S:1:pos:R:3:initial_magmoms:R:1 pbc="T T T"
Si       1.35554592      -1.35874890       1.35921089       0.00000000
Si      -1.35799956       1.35852084       1.35900515       0.00000000
Si       1.35325917       1.36774098      -1.35995154       0.00000000
Si      -1.36612827      -1.37007045      -1.36502643       0.00000000
Si      -0.11388339       2.60506422      -2.76588563       0.00000000
Si      -2.71590138      -2.70989037       0.00267460       0.00000000
Si       2.71518529      -2.71349046      -0.00226312       0.00000000
Si       2.71436590       2.71500543       0.00257173       0.00000000
Si      -0.00016290       2.71459818       2.71653584       0.00000000
Si       2.71433332      -0.00013032       2.71691302       0.00000000
