10
Lattice="16.28999089631971 0.0 0.0 0.0 16.28999089631971 0.0 0.0 0.0 34.28971787722196" Properties=species:S:1:pos:R:3:initial_magmoms:R:1 pbc="T T T"
Si       1.77326424      -0.18083529      -1.49160356       0.00000000
Si      -1.67492151      -1.69404597      -0.09206794       0.00000000
Si      -1.37580453       2.00363742      -0.64910472       0.00000000
Si       1.24778142      -0.76566258       2.05073201       0.00000000
Si       1.91238084       1.51115814       2.53013683       0.00000000
Si      -2.46894498      -1.56007701       2.16731712       0.00000000
Si      -2.97157293       1.88169048       1.27561251       0.00000000
Si       0.95680944       0.40905819      -3.60038810       0.00000000
Si       2.99849445       1.92492414      -1.17956695       0.00000000
Si      -0.17158257       3.83095188       0.25532138       0.00000000
