10
Lattice="16.28999089631971 0.0 0.0 0.0 16.28999089631971 0.0 0.0 0.0 34.28971787722196" Properties=species:S:1:pos:R:3:initial_magmoms:R:1 pbc="T T T"
Si      -1.69518627      -0.89417439       1.47425295       0.00000000
Si       0.66459942       2.27682072       0.47940481       0.00000000
Si       1.86248687      -1.37845980      -0.89372771       0.00000000
Si      -1.24778142       0.76566258      -2.05073201       0.00000000
Si       1.67399202      -0.85312359       2.23644523       0.00000000
Si      -2.08233441       1.05406074       2.76471292       0.00000000
Si       0.52548282       0.58482729      -3.54233557       0.00000000
Si       2.59725872       2.42703081      -0.84393901       0.00000000
Si       3.54927239       0.26230158      -1.09878033       0.00000000
Si      -2.92270293      -0.92838339      -2.14279996       0.00000000
