10
Lattice="16.28999089631971 0.0 0.0 0.0 16.28999089631971 0.0 0.0 0.0 34.28971787722196" Properties=species:S:1:pos:R:3:initial_magmoms:R:1 pbc="T T T"
Si       1.09741725       0.44212689       2.00745837       0.00000000
Si       1.93265930       0.15021009      -1.32334382       0.00000000
Si      -1.69702704       1.67169609      -0.03014068       0.00000000
Si      -0.66459942      -2.27682072      -0.47940481       0.00000000
Si      -0.69170598      -0.44012322       3.32188686       0.00000000
Si      -1.91238084      -1.51115814      -2.53013683       0.00000000
Si       2.65359932      -1.40541975       1.87451705       0.00000000
Si      -3.55600926       0.47605896       0.75519717       0.00000000
Si       1.65955582       2.81606519       1.77816289       0.00000000
Si       1.00939260      -3.12994431       1.75704042       0.00000000
