10
Lattice="16.28999089631971 0.0 0.0 0.0 16.28999089631971 0.0 0.0 0.0 34.28971787722196" Properties=species:S:1:pos:R:3:initial_magmoms:R:1 pbc="T T T"
Si       0.69823827       1.73400534       1.49747538       0.00000000
Si       1.61176518      -1.81558566       0.22950434       0.00000000
Si      -1.83976002      -0.90863991       1.38874948       0.00000000
Si      -0.06260247       1.16919846      -2.21583710       0.00000000
Si      -2.39831154       1.25789751      -1.69041546       0.00000000
Si       2.16538083       0.49668210       2.90340946       0.00000000
Si      -0.55400661      -2.24112933       2.89833458       0.00000000
Si       3.48093095      -0.79190577       1.43899080       0.00000000
Si       1.96809264       3.29997788       0.26475041       0.00000000
Si       0.72725076       3.43983128      -1.77161355       0.00000000
