10
Lattice="16.28999089631971 0.0 0.0 0.0 16.28999089631971 0.0 0.0 0.0 34.28971787722196" Properties=species:S:1:pos:R:3:initial_magmoms:R:1 pbc="T T T"
Si      -1.08831879       1.83831021      -0.99649405       0.00000000
Si       1.20300070       1.22860809       1.63169569       0.00000000
Si      -1.35428562      -1.41877755       1.42389303       0.00000000
Si       1.30743752       0.07288146      -2.16820865       0.00000000
Si       2.43676294      -1.99324440      -1.61593815       0.00000000
Si       2.42949760       2.73237057       0.35997233       0.00000000
Si       3.09986368       1.54719162      -1.50422218       0.00000000
Si      -2.93024538       2.62374885       0.24448583       0.00000000
Si      -0.09630666       2.54931984       3.03613474       0.00000000
Si      -3.11740119      -2.47625919       0.27579236       0.00000000
