10
Lattice="16.28999089631971 0.0 0.0 0.0 16.28999089631971 0.0 0.0 0.0 34.28971787722196" Properties=species:S:1:pos:R:3:initial_magmoms:R:1 pbc="T T T"
Si       1.35405738      -1.35584439      -1.35869654       0.00000000
Si       1.35578412       1.35751086       1.35732495       0.00000000
Si      -1.35871958      -1.35742452       1.35674203       0.00000000
Si      -1.35948847       1.35583299      -1.36071963       0.00000000
Si       2.71145421      -2.71453154      -0.00054864       0.00000000
Si       2.71322982       0.00061902       2.71440987       0.00000000
Si       2.71282257       2.71489140      -0.00013716       0.00000000
Si      -0.00164529      -2.71508582       2.71447845       0.00000000
Si      -0.00097740       2.71494027       2.71478706       0.00000000
Si      -2.71483191      -2.71503007       0.00010287       0.00000000
