10
Lattice="16.28999089631971 0.0 0.0 0.0 16.28999089631971 0.0 0.0 0.0 34.28971787722196" Properties=species:S:1:pos:R:3:initial_magmoms:R:1 pbc="T T T"
Si       1.35779005       1.33097445       1.35777072       0.00000000
Si      -1.36506457      -1.33713207       1.34837533       0.00000000
Si       1.35463794      -1.35822762      -1.35557617       0.00000000
Si      -1.35833680       1.35422028      -1.35790788       0.00000000
Si       0.00881587       2.62954809       2.75281438       0.00000000
Si       2.55891040      -0.15718221       2.84584244       0.00000000
Si      -0.00086418       2.71404432      -2.71372408       0.00000000
Si       2.71418668      -0.00076563      -2.71375837       0.00000000
Si      -2.71542412      -0.00073305      -2.71392982       0.00000000
Si      -0.00085485      -2.71595025      -2.71362121       0.00000000
