10
Lattice="16.28999089631971 0.0 0.0 0.0 16.28999089631971 0.0 0.0 0.0 34.28971787722196" Properties=species:S:1:pos:R:3:initial_magmoms:R:1 pbc="T T T"
Si      -0.82957802       1.82099394       1.22314921       0.00000000
Si      -1.70184141      -1.45212318       0.73472620       0.00000000
Si      -0.64108318       1.29565773      -1.90702373       0.00000000
Si       1.89972188      -1.47595545       0.17631783       0.00000000
Si      -0.39567596       1.02905559       3.36831516       0.00000000
Si      -1.89912960      -2.66667300      -1.37028647       0.00000000
Si       2.08643786      -2.45127033      -1.93335824       0.00000000
Si       1.04570234       2.93641911      -2.11207635       0.00000000
Si      -2.50357005       2.67411753      -1.01329602       0.00000000
Si       0.81462869       3.54551850       1.34062585       0.00000000
