10
Lattice="16.28999089631971 0.0 0.0 0.0 16.28999089631971 0.0 0.0 0.0 34.28971787722196" Properties=species:S:1:pos:R:3:initial_magmoms:R:1 pbc="T T T"
Si       1.35795069       1.35694071       1.35650200       0.00000000
Si      -1.35682179       1.35698958      -1.35759927       0.00000000
Si      -1.35685437      -1.35814617       1.35674203       0.00000000
Si       1.35483930      -1.35786924      -1.36034245       0.00000000
Si      -2.71222551       2.71404316      -0.00024003       0.00000000
Si      -2.71420377      -0.00086337       2.71382695       0.00000000
Si       0.00096111       2.71398740       2.71413556       0.00000000
Si       2.71406061       2.71454169      -0.00089153       0.00000000
Si       0.00084708      -2.71567332       2.71379266       0.00000000
Si       2.71544526      -0.00058644       2.71440987       0.00000000
