10
Lattice="10.86 0.0 0.0 0.0 10.86 0.0 0.0 0.0 10.86" Properties=species:S:1:pos:R:3:initial_magmoms:R:1 pbc="T T T"
Si       0.93441612       1.57340766       1.31465730       0.00000000
Si      -1.78058388      -1.14159234       1.31465730       0.00000000
Si       1.92322998      -0.37128168      -1.55876838       0.00000000
Si      -1.78058388       1.57340766      -1.40034270       0.00000000
Si       2.26968570      -2.39458656      -0.21577734       0.00000000
Si       2.29191612       0.21590766       2.67215730       0.00000000
Si      -0.42308388      -2.49909234       2.67215730       0.00000000
Si       2.26215972       3.06097788       0.15290880       0.00000000
Si      -0.42308388       2.93090766       2.67215730       0.00000000
Si      -3.13808388      -2.49909234      -0.04284270       0.00000000
