10
Lattice="10.86 0.0 0.0 0.0 10.86 0.0 0.0 0.0 10.86" Properties=species:S:1:pos:R:3:initial_magmoms:R:1 pbc="T T T"
Si       1.40968230       1.34109054       1.14344940       0.00000000
Si      -1.30531770       1.34109054      -1.57155060       0.00000000
Si       1.40968230      -1.37390946      -1.57155060       0.00000000
Si       0.20175708      -2.71999560       2.45262240       0.00000000
Si       0.05218230       2.69859054       2.50094940       0.00000000
Si       2.76718230      -0.01640946       2.50094940       0.00000000
Si      -2.66281770       2.69859054      -0.21405060       0.00000000
Si      -2.69257410       0.11366076       2.69670090       0.00000000
Si       2.76718230       2.69859054      -0.21405060       0.00000000
Si       2.76718230      -2.73140946      -0.21405060       0.00000000
