10
Lattice="10.86 0.0 0.0 0.0 10.86 0.0 0.0 0.0 10.86" Properties=species:S:1:pos:R:3:initial_magmoms:R:1 pbc="T T T"
Si      -1.46024646       1.07154534       1.29067842       0.00000000
Si       1.15854480      -1.55259990       1.28466198       0.00000000
Si       1.15408134       1.38660480      -1.50987666       0.00000000
Si      -0.11186886       2.46855402       2.68746990       0.00000000
Si       2.60313114      -0.24644598       2.68746990       0.00000000
Si      -2.82686886       2.46855402      -0.02753010       0.00000000
Si      -0.15615594       2.56015812      -2.86408608       0.00000000
Si      -2.82686886      -0.24644598       2.68746990       0.00000000
Si       2.60313114      -2.96144598      -0.02753010       0.00000000
Si      -2.82686886      -0.24644598      -2.74253010       0.00000000
