10
Lattice="10.86 0.0 0.0 0.0 10.86 0.0 0.0 0.0 10.86" Properties=species:S:1:pos:R:3:initial_magmoms:R:1 pbc="T T T"
Si      -1.15854480       1.55259990      -1.28466198       0.00000000
Si      -1.27041366      -1.40884608       1.40280792       0.00000000
Si       1.44458634       1.30615392       1.40280792       0.00000000
Si       1.44458634      -1.40884608      -1.31219208       0.00000000
Si      -2.61879126       2.62414524       0.00601644       0.00000000
Si       2.59425852       2.78519904      -0.15832794       0.00000000
Si      -2.62791366      -0.05134608       2.76030792       0.00000000
Si      -2.62791366      -2.76634608       0.04530792       0.00000000
Si       0.08708634       2.66365392       2.76030792       0.00000000
Si       0.08708634      -2.76634608      -2.66969208       0.00000000
