10
Lattice="16.28999089631971 0.0 0.0 0.0 16.28999089631971 0.0 0.0 0.0 34.5300574570662" Properties=species:S:1:pos:R:3:initial_magmoms:R:1 pbc="T T T"
Si      -1.82652507      -0.18889232       1.49418548       0.00000000
Si       0.73564174      -1.94252453      -1.19035534       0.00000000
Si       2.02839659       1.31478219       0.35237943       0.00000000
Si      -2.09118870       0.86350032      -1.08638527       0.00000000
Si       1.05360951      -2.45738627       1.05941728       0.00000000
Si      -0.32959239       1.97982144      -2.32418494       0.00000000
Si      -1.32842574      -2.48424848       1.34622410       0.00000000
Si       2.35528802      -0.92615885      -2.51057829       0.00000000
Si       1.07811130       3.36740364      -0.73158874       0.00000000
Si       3.74186024       0.33036283      -1.10630913       0.00000000
