10
Lattice="16.28999089631971 0.0 0.0 0.0 16.28999089631971 0.0 0.0 0.0 34.5300574570662" Properties=species:S:1:pos:R:3:initial_magmoms:R:1 pbc="T T T"
Si      -1.26630315       1.36692648      -1.43738351       0.00000000
Si      -1.26265419      -1.54852577       1.28824810       0.00000000
Si       1.43817894      -1.34480955      -1.43089185       0.00000000
Si       1.35940050       1.16538660       1.67937028       0.00000000
Si       2.65720851       2.51862948       0.03784496       0.00000000
Si       1.95087411      -0.78493365       3.02238309       0.00000000
Si      -2.59313994       2.69711901       0.04561423       0.00000000
Si      -2.62962954       0.00912240      -2.80684635       0.00000000
Si      -2.64922641      -2.80504745      -0.11602106       0.00000000
Si       0.08858502      -2.70846404      -2.80511985       0.00000000
