10
Lattice="16.28999089631971 0.0 0.0 0.0 16.28999089631971 0.0 0.0 0.0 34.5300574570662" Properties=species:S:1:pos:R:3:initial_magmoms:R:1 pbc="T T T"
Si      -0.85843413      -0.96560604       1.93326994       0.00000000
Si      -1.52326161      -0.01905930      -1.76655873       0.00000000
Si       0.59406372       2.25127800       0.55489833       0.00000000
Si       2.00753073      -1.13313240      -0.72330152       0.00000000
Si       2.40121116       1.72312362       1.93734449       0.00000000
Si       3.47424975      -0.16425207       0.91487438       0.00000000
Si      -0.62569890       1.51407405      -3.24997082       0.00000000
Si      -1.28515068      -3.16905660       1.24795150       0.00000000
Si       2.17215747       2.66229099      -1.31124513       0.00000000
Si      -2.74162329       0.23438052       2.79469176       0.00000000
