10
Lattice="16.28999089631971 0.0 0.0 0.0 16.28999089631971 0.0 0.0 0.0 34.5300574570662" Properties=species:S:1:pos:R:3:initial_magmoms:R:1 pbc="T T T"
Si      -1.13244822      -1.90515527       0.75434406       0.00000000
Si       0.68214375       1.34252406       1.79722143       0.00000000
Si      -0.91701297       0.73039473      -2.16558829       0.00000000
Si       2.41010550      -1.35600729      -2.06317209       0.00000000
Si      -1.40172192       2.72824920       1.74321639       0.00000000
Si       0.79645068      -0.25402463      -3.62427686       0.00000000
Si       0.46946151      -3.39402869       1.73151070       0.00000000
Si       2.09927601      -3.24453536      -0.04999955       0.00000000
Si      -1.89180005      -3.04177373      -1.45855044       0.00000000
Si      -2.94540956      -0.58438746      -2.51796773       0.00000000
