10
Lattice="16.28999089631971 0.0 0.0 0.0 16.28999089631971 0.0 0.0 0.0 34.5300574570662" Properties=species:S:1:pos:R:3:initial_magmoms:R:1 pbc="T T T"
Si       1.35827649      -1.35821133      -1.35288841       0.00000000
Si      -1.35812988      -1.35539316       1.35765356       0.00000000
Si       1.35698958       1.35948195       1.35844775       0.00000000
Si      -1.36288656       1.36155078      -1.35803339       0.00000000
Si       2.68501554       0.00296478      -2.69476172       0.00000000
Si       0.02114442       2.71002069      -2.69954414       0.00000000
Si       2.71215468      -2.71002069       0.00162291       0.00000000
Si      -0.00048870      -2.71280628       2.71565242       0.00000000
Si      -2.71560816      -2.71314837       0.00172650       0.00000000
Si       2.71401174       0.00197109       2.71582507       0.00000000
