10
Lattice="16.28999089631971 0.0 0.0 0.0 16.28999089631971 0.0 0.0 0.0 34.5300574570662" Properties=species:S:1:pos:R:3:initial_magmoms:R:1 pbc="T T T"
Si       0.93499713       0.92111805       1.93596328       0.00000000
Si       0.01451439       1.86258231      -1.41973864       0.00000000
Si      -1.89643293      -1.36412460       0.44757885       0.00000000
Si       1.75607829      -1.26623799      -1.01577127       0.00000000
Si       0.03743442      -0.61201530       3.41937538       0.00000000
Si      -0.82886778      -2.52075858       2.30602212       0.00000000
Si       0.51691428       3.80550690      -0.08004072       0.00000000
Si       3.28165308       0.81554256       1.91030744       0.00000000
Si       1.62424332       1.74752604      -3.09738241       0.00000000
Si      -2.57857668      -2.70664866      -1.34964258       0.00000000
