10
Lattice="16.28999089631971 0.0 0.0 0.0 16.28999089631971 0.0 0.0 0.0 34.5300574570662" Properties=species:S:1:pos:R:3:initial_magmoms:R:1 pbc="T T T"
Si       1.37894850      -1.08662445       1.65528901       0.00000000
Si      -1.22082147      -1.59234750      -1.47881411       0.00000000
Si       1.95028767       0.79086321      -1.40132862       0.00000000
Si      -1.29973023       1.61357337       1.62238184       0.00000000
Si      -2.47844205      -2.33013789       0.35207212       0.00000000
Si       2.67947694      -2.52944604       0.36825636       0.00000000
Si       2.62482399       2.75178825       0.21786407       0.00000000
Si       0.05040126      -2.43701658       3.02395766       0.00000000
Si       3.70116945      -0.96000228      -0.97809654       0.00000000
Si      -2.78871768       2.90128158       0.25801564       0.00000000
