10
Lattice="16.28999089631971 0.0 0.0 0.0 16.28999089631971 0.0 0.0 0.0 34.5300574570662" Properties=species:S:1:pos:R:3:initial_magmoms:R:1 pbc="T T T"
Si      -0.51567624       0.78288111       2.24742458       0.00000000
Si       0.73414143       1.81887624      -1.54687838       0.00000000
Si       1.66697199      -1.90825947      -0.36912652       0.00000000
Si      -2.02688325      -0.81285471      -1.49684430       0.00000000
Si      -1.25641512      -2.64580551       0.75859126       0.00000000
Si      -2.86993962       0.68152473       2.01524434       0.00000000
Si       2.00841039       0.52059582      -3.03857769       0.00000000
Si       2.12304312       3.11797116      -0.13276815       0.00000000
Si      -0.75034998      -2.18127987      -3.03954454       0.00000000
Si       3.31861509      -0.89119332      -1.71013658       0.00000000
