10
Lattice="16.28999089631971 0.0 0.0 0.0 16.28999089631971 0.0 0.0 0.0 34.5300574570662" Properties=species:S:1:pos:R:3:initial_magmoms:R:1 pbc="T T T"
Si       1.75029534      -0.50189490       1.58354932       0.00000000
Si       1.47492918       0.18013482      -1.90581853       0.00000000
Si      -1.66228047      -1.77710868       0.26201422       0.00000000
Si      -1.35788553       1.94610114       0.62306070       0.00000000
Si       2.31733395       2.02095369      -0.40849081       0.00000000
Si       0.58230234      -1.51467678       3.40791140       0.00000000
Si      -1.52334306      -2.33631180       2.56537752       0.00000000
Si       3.24847035      -1.96810893       0.39940940       0.00000000
Si      -0.13146030      -1.51127217      -3.52793794       0.00000000
Si       3.00268683       1.52213760       1.92684734       0.00000000
