10
Lattice="16.28999089631971 0.0 0.0 0.0 16.28999089631971 0.0 0.0 0.0 34.5300574570662" Properties=species:S:1:pos:R:3:initial_magmoms:R:1 pbc="T T T"
Si       2.13094377       0.13404064       0.90665623       0.00000000
Si      -0.77711445       1.41863746      -1.67691865       0.00000000
Si      -1.42443018       0.07503826       1.85008698       0.00000000
Si      -0.11588706      -2.08679854      -1.05361623       0.00000000
Si      -3.32123126       1.00551491       0.78562831       0.00000000
Si      -3.10244679       0.99534832      -1.61369408       0.00000000
Si       3.46313997      -0.79364947      -0.78390180       0.00000000
Si       1.00743876      -3.46187002       0.53556149       0.00000000
Si       1.02653064       1.37529465      -3.22120727       0.00000000
Si       2.19647844      -1.37070643       2.75263413       0.00000000
