10
Lattice="16.28999089631971 0.0 0.0 0.0 16.28999089631971 0.0 0.0 0.0 34.5300574570662" Properties=species:S:1:pos:R:3:initial_magmoms:R:1 pbc="T T T"
Si       1.33786512       1.33722981      -1.39035699       0.00000000
Si      -1.35951453       1.35366196       1.36228059       0.00000000
Si       1.35505107      -1.36295172       1.36072673       0.00000000
Si      -1.34768799      -1.38465000      -1.39670707       0.00000000
Si       2.57686623      -0.24643512      -2.80122485       0.00000000
Si       2.71471221       2.71084889       0.00065607       0.00000000
Si      -0.00066789       2.71157380       2.71976150       0.00000000
Si       2.71430496      -0.00412137       2.71913995       0.00000000
Si      -2.71783989      -2.71621089       0.00148479       0.00000000
Si      -2.72095128       2.71390978       0.00555934       0.00000000
