10
Lattice="16.28999089631971 0.0 0.0 0.0 16.28999089631971 0.0 0.0 0.0 34.5300574570662" Properties=species:S:1:pos:R:3:initial_magmoms:R:1 pbc="T T T"
Si      -1.35866745      -1.35599589       1.35685937       0.00000000
Si       1.35757602      -1.35744570      -1.35772262       0.00000000
Si       1.35728280       1.35826020       1.35786074       0.00000000
Si      -1.35915615       1.35871632      -1.35744638       0.00000000
Si      -2.71311579      -0.00285075       2.71254471       0.00000000
Si       2.71480995      -2.71458189      -0.00037983       0.00000000
Si      -2.71526607      -2.71435383      -0.00006906       0.00000000
Si      -0.00312768      -2.71248048       2.71720627       0.00000000
Si       2.71332756      -0.00135207      -2.71648114       0.00000000
Si      -0.00123804       2.71526161      -2.71492728       0.00000000
