10
Lattice="16.28999089631971 0.0 0.0 0.0 16.28999089631971 0.0 0.0 0.0 34.5300574570662" Properties=species:S:1:pos:R:3:initial_magmoms:R:1 pbc="T T T"
Si      -2.08205489      -1.04997358       0.17227055       0.00000000
Si       1.89680108      -0.93047665       1.06445868       0.00000000
Si      -0.31839131       2.00121835       1.24159797       0.00000000
Si       0.21878447      -0.01016659      -2.39932238       0.00000000
Si       3.32123126      -1.00551491      -0.78562831       0.00000000
Si       2.54411681       0.41312255      -2.46254695       0.00000000
Si      -3.21891770       0.17462717       1.82170326       0.00000000
Si      -2.64609614       2.35700824       1.07464505       0.00000000
Si       2.69361014       0.73607179       2.58478343       0.00000000
Si      -1.17807392       1.78061917      -3.15625620       0.00000000
