10
Lattice="16.28999089631971 0.0 0.0 0.0 16.28999089631971 0.0 0.0 0.0 34.5300574570662" Properties=species:S:1:pos:R:3:initial_magmoms:R:1 pbc="T T T"
Si       1.17481851       1.39597155      -1.50022824       0.00000000
Si      -1.38890169      -1.29909492      -1.41411023       0.00000000
Si      -1.22305320       1.53252640       1.39477339       0.00000000
Si       1.40748858      -1.78781121       1.05896839       0.00000000
Si       2.28586167       2.53075154       0.30448622       0.00000000
Si      -1.53388269      -0.35600166       3.40794593       0.00000000
Si       0.37682028       3.39810119       1.56780360       0.00000000
Si      -2.12304312      -3.11797116       0.13276815       0.00000000
Si      -2.83670802       2.63450907      -0.16633138       0.00000000
Si       2.58139485       0.12334788      -2.90107893       0.00000000
