10
Lattice="16.28999089631971 0.0 0.0 0.0 16.28999089631971 0.0 0.0 0.0 34.5300574570662" Properties=species:S:1:pos:R:3:initial_magmoms:R:1 pbc="T T T"
Si      -0.68266503      -0.07592769      -2.22712089       0.00000000
Si       1.88028954       1.15390215       0.85144263       0.00000000
Si      -1.77474663       1.55292570       0.52641102       0.00000000
Si      -0.07597656      -2.43590886       0.41674350       0.00000000
Si      -2.96378631      -0.53823789      -1.69066162       0.00000000
Si      -3.49971102      -0.03688056       0.58127931       0.00000000
Si       1.56916683       0.65875131       3.16164289       0.00000000
Si      -0.50808510       2.12998266      -3.01012491       0.00000000
Si       3.68776278       0.61271577      -0.57064405       0.00000000
Si      -0.90108135      -2.64660372       2.58015640       0.00000000
