10
Lattice="16.28999089631971 0.0 0.0 0.0 16.28999089631971 0.0 0.0 0.0 34.5300574570662" Properties=species:S:1:pos:R:3:initial_magmoms:R:1 pbc="T T T"
Si      -1.69191198       1.67702292       0.48414621       0.00000000
Si      -0.56984049      -1.95958926      -1.43275647       0.00000000
Si       2.11080933       1.40351382      -0.05310726       0.00000000
Si       1.05852420       2.50261382      -1.85999711       0.00000000
Si      -0.90503982       3.40817818      -1.00275343       0.00000000
Si       0.58028238       0.90989424      -3.50407766       0.00000000
Si      -1.14468201      -0.67991202      -3.44920937       0.00000000
Si       3.17290104      -2.09557818      -0.02648457       0.00000000
Si      -0.97964802       2.47083692       2.75311755       0.00000000
Si       1.45394766      -3.28963518      -1.45033228       0.00000000
