10
Lattice="16.28999089631971 0.0 0.0 0.0 16.28999089631971 0.0 0.0 0.0 34.5300574570662" Properties=species:S:1:pos:R:3:initial_magmoms:R:1 pbc="T T T"
Si      -1.78028523      -1.53354060       0.54163878       0.00000000
Si       2.02378815      -1.33004592      -0.01757581       0.00000000
Si      -0.57484152       1.27967724      -2.01645289       0.00000000
Si       0.56984049       1.95958926       1.43275647       0.00000000
Si       1.15012287       2.86948350      -2.07132118       0.00000000
Si       2.84889294      -1.11935106      -2.18098871       0.00000000
Si      -1.69797186      -3.24245934      -1.14187511       0.00000000
Si       3.74274153      -0.13598892       1.40627191       0.00000000
Si      -3.94961638      -0.60370740       0.27178623       0.00000000
Si       2.92486950       1.31655780      -2.59773220       0.00000000
