10
Lattice="16.28999089631971 0.0 0.0 0.0 16.28999089631971 0.0 0.0 0.0 34.5300574570662" Properties=species:S:1:pos:R:3:initial_magmoms:R:1 pbc="T T T"
Si      -1.11104316      -1.13477999      -1.80471446       0.00000000
Si      -1.90904139       0.86734965       1.26331739       0.00000000
Si       1.36301688      -1.55074514       1.44228678       0.00000000
Si       1.43804862       1.41441672      -1.70626921       0.00000000
Si      -2.28586167      -2.53075154      -0.30448622       0.00000000
Si      -2.50051500       2.81766990      -0.07969542       0.00000000
Si      -3.50891487      -0.99822514       1.09028717       0.00000000
Si       1.71965385      -0.19035191       3.45141929       0.00000000
Si       3.05888733      -2.47240076      -0.13663551       0.00000000
Si       2.34976734       1.89834375       2.52449391       0.00000000
