10
Lattice="16.28999089631971 0.0 0.0 0.0 16.28999089631971 0.0 0.0 0.0 34.5300574570662" Properties=species:S:1:pos:R:3:initial_magmoms:R:1 pbc="T T T"
Si      -1.35747828      -1.35775521      -1.35592705       0.00000000
Si       1.35812988       1.35539316      -1.35765356       0.00000000
Si       1.35764118      -1.35741312       1.35799886       0.00000000
Si      -1.35791811       1.35767376       1.35796433       0.00000000
Si      -0.00501732      -2.71244301      -2.71309719       0.00000000
Si       2.71640637      -0.00281817      -2.71054197       0.00000000
Si      -2.71192336      -0.00438201      -2.71689550       0.00000000
Si       2.71352304      -0.00247608       2.71641208       0.00000000
Si       2.71511946       2.71487511       0.00079419       0.00000000
Si       2.71526607      -2.71477900       0.00110496       0.00000000
