10
Lattice="16.28999089631971 0.0 0.0 0.0 16.28999089631971 0.0 0.0 0.0 34.5300574570662" Properties=species:S:1:pos:R:3:initial_magmoms:R:1 pbc="T T T"
Si       1.35009891       1.34543997      -1.37222525       0.00000000
Si      -1.36658439      -1.36344042      -1.37274320       0.00000000
Si       1.24849818      -1.44927243       1.42201762       0.00000000
Si      -1.29492468       1.44039438       1.39377202       0.00000000
Si      -2.34553194      -0.37730898       2.48102054       0.00000000
Si      -0.62643195      -2.28431412       2.76824172       0.00000000
Si       2.67916743      -2.72551248      -0.01629820       0.00000000
Si       2.69298135       2.71539639      -0.00258976       0.00000000
Si      -0.00658116       2.70355356      -2.73015505       0.00000000
Si      -2.72605005       2.71210581      -0.00935765       0.00000000
