10
Lattice="16.28999089631971 0.0 0.0 0.0 16.28999089631971 0.0 0.0 0.0 34.5300574570662" Properties=species:S:1:pos:R:3:initial_magmoms:R:1 pbc="T T T"
Si      -1.34182820      -1.35829278       1.35413149       0.00000000
Si      -1.35472988       1.35899325      -1.36069220       0.00000000
Si       1.35965231      -1.35588186      -1.36000160       0.00000000
Si       1.35753624       1.36280511       1.39142397       0.00000000
Si      -2.64698300       0.01723482       2.74272400       0.00000000
Si       2.71331384      -2.71150308       0.00020718       0.00000000
Si      -2.71333217      -2.71278999       0.00203727       0.00000000
Si      -2.71227332       2.71624347      -0.00814910       0.00000000
Si      -2.71259912       0.00112401      -2.71751704       0.00000000
Si       0.00221290      -2.71388142      -2.71724080       0.00000000
