10
Lattice="16.28999089631971 0.0 0.0 0.0 16.28999089631971 0.0 0.0 0.0 34.5300574570662" Properties=species:S:1:pos:R:3:initial_magmoms:R:1 pbc="T T T"
Si       0.35663697       1.36039323       2.00913252       0.00000000
Si       1.69587045      -0.92165562      -1.57892229       0.00000000
Si      -1.36301688       1.55074514      -1.44228678       0.00000000
Si      -1.16651061      -2.09686509       1.26604526       0.00000000
Si      -2.24138997      -2.76781761      -0.68780460       0.00000000
Si       0.98675046       3.44908889       1.08220714       0.00000000
Si       0.36364167      -2.12836995      -3.24472225       0.00000000
Si      -3.27205827       2.41809479      -0.17896939       0.00000000
Si      -2.47406004       0.41596515      -3.24700124       0.00000000
Si       3.17972655      -2.55547746      -0.52641102       0.00000000
