10
Lattice="16.28999089631971 0.0 0.0 0.0 16.28999089631971 0.0 0.0 0.0 34.5300574570662" Properties=species:S:1:pos:R:3:initial_magmoms:R:1 pbc="T T T"
Si      -0.07864812       1.91221794      -1.35989801       0.00000000
Si      -1.80747324       0.54118638       1.42208668       0.00000000
Si       2.00199213      -0.71324136       1.10965855       0.00000000
Si      -0.02151909      -1.47422871      -1.92664016       0.00000000
Si       3.37971888      -0.08394237      -0.64954527       0.00000000
Si       2.24318187      -0.99266373      -2.51023299       0.00000000
Si       1.60550982      -3.02834358       0.83662923       0.00000000
Si      -0.14445972       3.60687220       0.19782281       0.00000000
Si      -3.68776278      -0.61271577       0.57064405       0.00000000
Si      -1.75954806       2.95118178       1.67498496       0.00000000
