10
Lattice="16.28999089631971 0.0 0.0 0.0 16.28999089631971 0.0 0.0 0.0 34.5300574570662" Properties=species:S:1:pos:R:3:initial_magmoms:R:1 pbc="T T T"
Si       0.99825120      -2.05066665       0.27731105       0.00000000
Si       1.35088083       1.84116978      -0.57426971       0.00000000
Si      -0.76115025       1.02403827       2.05906301       0.00000000
Si      -1.73141523      -0.97311573      -1.49359847       0.00000000
Si      -2.49204420       2.22187522       0.93531619       0.00000000
Si      -0.19367181       3.10519070      -1.80443822       0.00000000
Si      -3.54480174       0.41467824      -0.67785994       0.00000000
Si       2.39179554      -1.84624344       2.25592074       0.00000000
Si       3.32801442      -1.86007365      -0.04654654       0.00000000
Si      -1.91141973      -0.53322057       3.45612371       0.00000000
