10
Lattice="16.28999089631971 0.0 0.0 0.0 16.28999089631971 0.0 0.0 0.0 34.5300574570662" Properties=species:S:1:pos:R:3:initial_magmoms:R:1 pbc="T T T"
Si       0.31112271       0.49515084      -2.31020026       0.00000000
Si      -0.75129480      -2.11129803       0.84236122       0.00000000
Si      -1.81338651       1.38779397       0.81573853       0.00000000
Si       1.73141523       0.97311573       1.49359847       0.00000000
Si       2.72966643      -1.07755092       1.77090952       0.00000000
Si       1.51076718      -3.00553758       0.98182820       0.00000000
Si       0.35904789       2.90514624      -2.05730197       0.00000000
Si      -1.56916683      -0.65875131      -3.16164289       0.00000000
Si      -0.85454082      -1.52102988       3.33052949       0.00000000
Si      -2.86567164       2.48689397      -0.99115132       0.00000000
