10
Lattice="16.28999089631971 0.0 0.0 0.0 16.28999089631971 0.0 0.0 0.0 34.5300574570662" Properties=species:S:1:pos:R:3:initial_magmoms:R:1 pbc="T T T"
Si       0.49809933      -2.29535615      -0.14796138       0.00000000
Si       1.82652507       0.18889232      -1.49418548       0.00000000
Si       0.25192485       0.65397345       2.32770700       0.00000000
Si      -0.26466363       1.05239264      -2.58057076       0.00000000
Si      -1.35659862       2.56723232      -1.03783599       0.00000000
Si      -2.03885640       0.09128590       2.85197716       0.00000000
Si       1.63118793      -1.19468972       3.01198954       0.00000000
Si       2.88013457      -2.26849394      -0.43476820       0.00000000
Si       0.66707550      -3.09423404       1.98420180       0.00000000
Si      -2.54014857      -2.05690313      -2.26631253       0.00000000
