10
Lattice="16.28999089631971 0.0 0.0 0.0 16.28999089631971 0.0 0.0 0.0 34.5300574570662" Properties=species:S:1:pos:R:3:initial_magmoms:R:1 pbc="T T T"
Si       1.13686281      -1.22460075      -1.64943271       0.00000000
Si      -2.23531380       0.11581376      -0.75392970       0.00000000
Si       0.57282156       2.18238107      -0.74705821       0.00000000
Si       0.78102405      -0.87048710       2.15301935       0.00000000
Si       2.90052639       1.82659118      -0.58010529       0.00000000
Si      -2.16950220      -1.57884050      -2.31165052       0.00000000
Si      -0.25327692      -0.95169601      -3.52403604       0.00000000
Si      -2.67170661       0.63328352       2.46969468       0.00000000
Si       3.21891770      -0.17462717      -1.82170326       0.00000000
Si      -0.11559384       3.64033607       0.95047489       0.00000000
