10
Lattice="16.28999089631971 0.0 0.0 0.0 16.28999089631971 0.0 0.0 0.0 34.5300574570662" Properties=species:S:1:pos:R:3:initial_magmoms:R:1 pbc="T T T"
Si      -1.35731538       1.35635427       1.36324743       0.00000000
Si       1.36013355      -1.35858600       1.36190076       0.00000000
Si      -1.35545832      -1.36287027      -1.38507734       0.00000000
Si       1.36810260       1.35739683      -1.37987366       0.00000000
Si      -2.70967860       2.71296918       0.00455797       0.00000000
Si      -2.71143792      -2.71349046       0.00210633       0.00000000
Si       2.71708796       2.71173114       0.00110496       0.00000000
Si      -2.71235016      -0.00057015       2.72045210       0.00000000
Si       0.00185706       2.71394658       2.72010680       0.00000000
Si       0.00206883      -2.71612944       2.71996868       0.00000000
