10
Lattice="16.28999089631971 0.0 0.0 0.0 16.28999089631971 0.0 0.0 0.0 34.5300574570662" Properties=species:S:1:pos:R:3:initial_magmoms:R:1 pbc="T T T"
Si       1.35723460       1.35780408       1.35824057       0.00000000
Si      -1.35806472      -1.35754344       1.35806792       0.00000000
Si      -1.36013355       1.35858600      -1.36190076       0.00000000
Si       1.36035576      -1.36174626      -1.35882758       0.00000000
Si      -2.71536381      -2.71414206       0.00027624       0.00000000
Si       2.71480085      -2.71511946       0.00214086       0.00000000
Si       2.71436102       0.00030951       2.71603225       0.00000000
Si      -0.00016290       2.71472850       2.71623943       0.00000000
Si      -0.00011196      -2.71451673       2.71696456       0.00000000
Si      -2.71492398       0.00048870       2.71668832       0.00000000
