10
Lattice="16.28999089631971 0.0 0.0 0.0 16.28999089631971 0.0 0.0 0.0 34.5300574570662" Properties=species:S:1:pos:R:3:initial_magmoms:R:1 pbc="T T T"
Si      -1.34907264       1.31222466       1.62053103       0.00000000
Si       1.43936811      -1.31984838       1.56058682       0.00000000
Si       0.29150955      -1.80300978      -1.85388529       0.00000000
Si      -1.44925614      -2.33554617      -0.08843153       0.00000000
Si      -0.26565732       2.29568454      -1.61928795       0.00000000
Si       2.34066190      -0.70007904      -1.42888911       0.00000000
Si      -2.23127388       1.24247088      -2.63999702       0.00000000
Si       0.30555153       2.51041932       2.90319359       0.00000000
Si      -3.18995667       2.30510016       0.38159188       0.00000000
Si      -2.66334984      -0.19991088       3.07487368       0.00000000
