10
Lattice="16.28999089631971 0.0 0.0 0.0 16.28999089631971 0.0 0.0 0.0 34.5300574570662" Properties=species:S:1:pos:R:3:initial_magmoms:R:1 pbc="T T T"
Si       1.27638666      -1.30543173       1.44853672       0.00000000
Si      -1.32589197      -1.35581670      -1.36176264       0.00000000
Si       1.39098681       1.35733167      -1.34953899       0.00000000
Si      -1.43066925       1.27624005       1.43831582       0.00000000
Si       2.08755277       0.63719964       2.70049371       0.00000000
Si       0.27407925       2.35615302       2.63623324       0.00000000
Si      -2.67247224      -2.70488934       0.01066979       0.00000000
Si      -2.68275123       0.00011403      -2.71416762       0.00000000
Si      -2.67916743       2.72551248       0.01629820       0.00000000
Si       0.03165147      -2.71306692      -2.71430574       0.00000000
