10
Lattice="16.28999089631971 0.0 0.0 0.0 16.28999089631971 0.0 0.0 0.0 34.5300574570662" Properties=species:S:1:pos:R:3:initial_magmoms:R:1 pbc="T T T"
Si       1.90852011       0.48557232      -1.33116899       0.00000000
Si       0.28406502       2.02369041       1.27232974       0.00000000
Si      -0.07369596      -1.95287778       1.50026277       0.00000000
Si      -1.63961294       0.12250080      -2.10074081       0.00000000
Si       2.29618953       2.61718398       0.15752621       0.00000000
Si       0.57448314       1.36607940       3.52786888       0.00000000
Si       0.20673639      -0.95583204       3.74772188       0.00000000
Si      -1.40373862       3.57604596       0.54882104       0.00000000
Si       3.92111703      -0.11189601      -0.31304968       0.00000000
Si      -0.53927231      -1.89811080      -3.49251008       0.00000000
