10
Lattice="16.28999089631971 0.0 0.0 0.0 16.28999089631971 0.0 0.0 0.0 34.5300574570662" Properties=species:S:1:pos:R:3:initial_magmoms:R:1 pbc="T T T"
Si      -1.86082299      -1.41270138      -0.24568150       0.00000000
Si       0.99989649      -0.66883482       2.08948400       0.00000000
Si      -1.07243586       2.16924156       0.18521933       0.00000000
Si       3.28514958      -0.41313069       1.35140361       0.00000000
Si      -0.82326402      -3.16100934      -1.46241781       0.00000000
Si       0.18868707       3.15568251      -1.67795455       0.00000000
Si      -1.95890508      -0.14191848      -3.02179608       0.00000000
Si      -0.04279383       1.05220368       3.45255878       0.00000000
Si      -0.19251522       3.05002557       2.17428987       0.00000000
Si      -3.19797135       1.63991430       1.15872579       0.00000000
