10
Lattice="16.28999089631971 0.0 0.0 0.0 16.28999089631971 0.0 0.0 0.0 34.5300574570662" Properties=species:S:1:pos:R:3:initial_magmoms:R:1 pbc="T T T"
Si      -0.82715733       2.12499792      -0.51083796       0.00000000
Si       0.58582098      -1.11395907      -2.06289585       0.00000000
Si      -1.75878243      -0.67952106       1.51573225       0.00000000
Si       1.96561656       1.05321366       1.02070907       0.00000000
Si      -0.95868279       1.06262928       3.02158890       0.00000000
Si      -2.81787678       1.42335504      -1.62902543       0.00000000
Si       1.07919621      -3.21106851      -1.11411293       0.00000000
Si      -3.52486278      -0.52035147      -0.31201377       0.00000000
Si       2.23127388      -1.24247088       2.63999702       0.00000000
Si       0.70944579       2.91918429      -2.17971110       0.00000000
