10
Lattice="16.28999089631971 0.0 0.0 0.0 16.28999089631971 0.0 0.0 0.0 34.5300574570662" Properties=species:S:1:pos:R:3:initial_magmoms:R:1 pbc="T T T"
Si      -0.91386900       0.33013314      -2.10954598       0.00000000
Si       1.34963043      -1.92542913       0.00120855       0.00000000
Si      -1.73446146      -0.47530962       1.55292114       0.00000000
Si       1.13160018       1.88602362       0.95603424       0.00000000
Si      -0.60084036       1.48890600       2.59773220       0.00000000
Si       3.38324471      -0.75272832      -0.45762711       0.00000000
Si       0.79494615      -2.73831642      -2.17132029       0.00000000
Si       3.30093134       0.95619042       1.22588678       0.00000000
Si       0.86776571       1.34889345      -3.31830585       0.00000000
Si      -2.99063223       1.39066101      -1.64749902       0.00000000
