10
Lattice="16.28999089631971 0.0 0.0 0.0 16.28999089631971 0.0 0.0 0.0 34.5300574570662" Properties=species:S:1:pos:R:3:initial_magmoms:R:1 pbc="T T T"
Si       0.39648231       2.31510222       0.27302932       0.00000000
Si       2.07676323      -1.06052787      -0.46204696       0.00000000
Si      -1.19568600      -0.61483347      -1.98796558       0.00000000
Si      -1.53660312      -0.79418637       1.66887314       0.00000000
Si      -1.60550982       3.02834358      -0.83662923       0.00000000
Si      -1.62702891       1.55411487      -2.76326939       0.00000000
Si       2.99063223      -1.39066101       1.64749902       0.00000000
Si      -0.70944579      -2.91918429       2.17971110       0.00000000
Si       1.77420906       2.94440121      -1.48617450       0.00000000
Si       0.37383921      -1.73178990      -3.32200056       0.00000000
