10
Lattice="16.28999089631971 0.0 0.0 0.0 16.28999089631971 0.0 0.0 0.0 34.5300574570662" Properties=species:S:1:pos:R:3:initial_magmoms:R:1 pbc="T T T"
Si       1.73446146       0.47530962      -1.55292114       0.00000000
Si      -1.96561656      -1.05321366      -1.02070907       0.00000000
Si       1.13362110       1.96421562       1.04481106       0.00000000
Si       0.26565732      -2.29568454       1.61928795       0.00000000
Si      -2.79277389       1.07178426      -1.53154702       0.00000000
Si      -2.92429935       0.00941562       2.00087983       0.00000000
Si      -1.08341532      -0.98345988       3.23981898       0.00000000
Si       3.08409189      -1.45011951      -1.55171259       0.00000000
Si       2.86606164       2.36133324      -0.59688691       0.00000000
Si       0.82059246       0.80544276      -3.66246712       0.00000000
