10
Lattice="16.28999089631971 0.0 0.0 0.0 16.28999089631971 0.0 0.0 0.0 34.5300574570662" Properties=species:S:1:pos:R:3:initial_magmoms:R:1 pbc="T T T"
Si      -1.35584928      -1.35544203      -1.35796433       0.00000000
Si      -1.35399222       1.36026387       1.35782621       0.00000000
Si       1.35668007      -1.35811359       1.35792980       0.00000000
Si       1.35886293       1.35983003      -1.35727373       0.00000000
Si      -2.71370223      -2.71189404      -0.00148479       0.00000000
Si       2.71560816      -2.71096551       0.00034530       0.00000000
Si       2.69956251       0.01184283       2.72756529       0.00000000
Si       0.00117288      -2.71287144      -2.71541071       0.00000000
Si      -2.71301805       0.00166158      -2.71541071       0.00000000
Si      -2.71384884       2.71572449       0.00017265       0.00000000
