10
Lattice="16.28999089631971 0.0 0.0 0.0 16.28999089631971 0.0 0.0 0.0 34.5300574570662" Properties=species:S:1:pos:R:3:initial_magmoms:R:1 pbc="T T T"
Si       0.16897617      -0.79887789       2.13216318       0.00000000
Si      -1.55439180      -1.39536882      -1.06583988       0.00000000
Si      -0.49809933       2.29535615       0.14796138       0.00000000
Si       2.38203524       0.02686221      -0.28680682       0.00000000
Si       1.32842574       2.48424848      -1.34622410       0.00000000
Si       2.06406747       0.54172395      -2.53657944       0.00000000
Si       1.13308860       1.10066643       3.15995091       0.00000000
Si       1.78404889      -2.57057829       1.91717892       0.00000000
Si       2.91401126      -2.25634419      -0.13818937       0.00000000
Si      -1.93559409      -1.50102576       2.78640454       0.00000000
