10
Lattice="16.28999089631971 0.0 0.0 0.0 16.28999089631971 0.0 0.0 0.0 34.5300574570662" Properties=species:S:1:pos:R:3:initial_magmoms:R:1 pbc="T T T"
Si       1.52819422       1.06518681      -1.44239037       0.00000000
Si       0.56781076      -2.04012702      -1.04329174       0.00000000
Si       0.55468427       0.81288729       2.17252884       0.00000000
Si      -2.11241619       0.87464268      -0.80330771       0.00000000
Si      -1.64119536      -0.08692344      -3.04192711       0.00000000
Si      -1.70881515       3.06844956       0.06177431       0.00000000
Si      -0.79494615       2.73831642       2.17132029       0.00000000
Si       0.26413746       1.23619923      -3.45684051       0.00000000
Si       2.58829855       1.98558810       1.71369318       0.00000000
Si       2.09168161       3.05429355      -0.40462344       0.00000000
