10
Lattice="16.28999089631971 0.0 0.0 0.0 16.28999089631971 0.0 0.0 0.0 34.5300574570662" Properties=species:S:1:pos:R:3:initial_magmoms:R:1 pbc="T T T"
Si       1.34898536       1.35433431       1.38097862       0.00000000
Si      -1.36810260      -1.35739683       1.37987366       0.00000000
Si      -1.20139074       1.37834577      -1.54251723       0.00000000
Si       1.41938748      -1.32230817      -1.42757006       0.00000000
Si      -0.06757416      -2.45192193      -2.88512400       0.00000000
Si      -2.71026828       2.70594819      -0.00282456       0.00000000
Si       2.70938932      -2.71740006       0.00610146       0.00000000
Si       2.71147444       2.72829807       0.00569056       0.00000000
Si      -2.72356092      -2.72026710      -0.00520368       0.00000000
Si       2.70877030       0.00053757       2.74281032       0.00000000
