10
Lattice="16.28999089631971 0.0 0.0 0.0 16.28999089631971 0.0 0.0 0.0 34.5300574570662" Properties=species:S:1:pos:R:3:initial_magmoms:R:1 pbc="T T T"
Si      -1.34885991      -1.36083795      -1.37850972       0.00000000
Si       1.36331825       1.35381629      -1.37913127       0.00000000
Si       1.34372137      -1.46035356       1.31169403       0.00000000
Si      -1.34115904       1.44562673       1.49808738       0.00000000
Si      -0.27592491      -2.47671924       2.63191698       0.00000000
Si      -2.69182380       2.70702659      -0.02520696       0.00000000
Si      -2.72256303      -2.71170249      -0.01201647       0.00000000
Si       2.72664464       2.71162037      -0.00966842       0.00000000
Si      -2.70580062      -0.00831279      -2.73934005       0.00000000
Si       0.00965671       2.70943751      -2.73934005       0.00000000
