10
Lattice="16.28999089631971 0.0 0.0 0.0 16.28999089631971 0.0 0.0 0.0 34.5300574570662" Properties=species:S:1:pos:R:3:initial_magmoms:R:1 pbc="T T T"
Si      -1.75888017      -0.88982496      -1.27983174       0.00000000
Si      -1.23206157       1.44378270       1.40526017       0.00000000
Si       1.48898745      -1.28770821       1.36436620       0.00000000
Si       0.68970231       1.86572858      -1.36791041       0.00000000
Si      -2.54701155       2.74259810      -0.08541360       0.00000000
Si      -3.33276458       0.85833639      -1.48078923       0.00000000
Si      -2.65082935      -2.66440869      -0.05533445       0.00000000
Si      -2.59176181       0.09226656       2.76317961       0.00000000
Si      -0.02256165       1.07191458      -3.63688176       0.00000000
Si       2.65518855       2.71570820      -0.09189489       0.00000000
