10
Lattice="16.28999089631971 0.0 0.0 0.0 16.28999089631971 0.0 0.0 0.0 34.5300574570662" Properties=species:S:1:pos:R:3:initial_magmoms:R:1 pbc="T T T"
Si       1.35646830      -1.35720135      -1.35661766       0.00000000
Si      -1.35702705       1.35646083      -1.35723920       0.00000000
Si      -1.35604802      -1.35799956       1.35775715       0.00000000
Si       1.35788553       1.35770212       1.35813698       0.00000000
Si       0.00048870       2.71427957      -2.71364967       0.00000000
Si       2.71438641      -0.00065606      -2.71409856       0.00000000
Si      -2.71414925      -0.00148239      -2.71482369       0.00000000
Si      -2.71442411       2.71488230       0.00117402       0.00000000
Si      -0.00024435      -2.71479366      -2.71489275       0.00000000
Si      -2.71426146      -2.71557558       0.00010359       0.00000000
