10
Lattice="16.28999089631971 0.0 0.0 0.0 16.28999089631971 0.0 0.0 0.0 34.5300574570662" Properties=species:S:1:pos:R:3:initial_magmoms:R:1 pbc="T T T"
Si       1.35701124      -1.35677781      -1.35696296       0.00000000
Si      -1.35889733      -1.35549090       1.35841322       0.00000000
Si       1.35821344       1.35757602       1.35765356       0.00000000
Si      -1.35818057       1.35819504      -1.35734279       0.00000000
Si      -0.00020586      -2.71283886      -2.71461651       0.00000000
Si      -2.71494209      -0.00078192      -2.71275189       0.00000000
Si       2.71401711       0.00078192      -2.71499634       0.00000000
Si       0.00011221       2.71409319      -2.71492728       0.00000000
Si       2.71461984      -2.71469592       0.00065607       0.00000000
Si       2.71426146       2.71557558      -0.00010359       0.00000000
