10
Lattice="16.28999089631971 0.0 0.0 0.0 16.28999089631971 0.0 0.0 0.0 34.5300574570662" Properties=species:S:1:pos:R:3:initial_magmoms:R:1 pbc="T T T"
Si       1.35772263       1.35691953      -1.35786074       0.00000000
Si      -1.35788553      -1.35770212      -1.35813698       0.00000000
Si       1.35700587      -1.35802792       1.36221153       0.00000000
Si      -1.36120869       1.35955851       1.36048502       0.00000000
Si       2.71360449       2.71185657       0.00055248       0.00000000
Si      -2.71393355      -2.71570168      -0.00037983       0.00000000
Si      -0.00141723      -2.71490347      -2.71475463       0.00000000
Si      -2.71487022       2.71517973       0.00027624       0.00000000
Si       2.71534752      -0.00044635      -2.71475463       0.00000000
Si       0.00008145       2.71433265      -2.71585960       0.00000000
