10
Lattice="16.28999089631971 0.0 0.0 0.0 16.28999089631971 0.0 0.0 0.0 34.5300574570662" Properties=species:S:1:pos:R:3:initial_magmoms:R:1 pbc="T T T"
Si      -1.34165580      -1.34416935       1.37512578       0.00000000
Si       1.35444834      -1.35314514      -1.35568534       0.00000000
Si       1.37319813       1.32411636       1.36977361       0.00000000
Si      -1.35855668       1.36076886      -1.35561628       0.00000000
Si      -0.02542869       2.62185921       2.69607386       0.00000000
Si       2.70998811      -2.70962973       0.00466156       0.00000000
Si      -0.00215028      -2.71150308      -2.71261377       0.00000000
Si       2.71311579       0.00285075      -2.71254471       0.00000000
Si      -2.71454021      -2.71306692       0.00911594       0.00000000
Si      -2.71677012       0.00319284      -2.71326984       0.00000000
