10
Lattice="16.28999089631971 0.0 0.0 0.0 16.28999089631971 0.0 0.0 0.0 34.5300574570662" Properties=species:S:1:pos:R:3:initial_magmoms:R:1 pbc="T T T"
Si      -1.61964628      -1.01636568       1.32022295       0.00000000
Si       1.39862682      -1.29774285      -1.32630025       0.00000000
Si       1.38657222       1.25652168       1.40426916       0.00000000
Si      -1.34372137       1.46035356      -1.31169403       0.00000000
Si      -2.35528802       0.92615885       2.51057829       0.00000000
Si      -0.32689143       2.24094104       2.86295772       0.00000000
Si       0.02542869      -2.62185921      -2.69607386       0.00000000
Si      -2.69258129       0.09951561      -2.69020375       0.00000000
Si      -2.75508602      -2.63738358       0.02596662       0.00000000
Si       2.73781143       0.09658341      -2.68909879       0.00000000
