10
Lattice="16.28999089631971 0.0 0.0 0.0 16.28999089631971 0.0 0.0 0.0 34.5300574570662" Properties=species:S:1:pos:R:3:initial_magmoms:R:1 pbc="T T T"
Si      -0.53197601       2.28320640      -0.14861745       0.00000000
Si      -1.12996237      -0.31423410       2.05536829       0.00000000
Si       2.35426338       0.10135638       0.23218024       0.00000000
Si      -0.37851281      -2.62156599      -0.20738764       0.00000000
Si      -1.22284306      -2.24062434      -2.35553825       0.00000000
Si       0.75479715      -0.15053589       3.40756609       0.00000000
Si       2.51111979      -1.24885656       2.20885448       0.00000000
Si       2.86993962      -0.68152473      -2.01524434       0.00000000
Si      -2.91401126       2.25634419       0.13818937       0.00000000
Si      -1.37194054      -2.70783783       2.10170765       0.00000000
