10
Lattice="16.28999089631971 0.0 0.0 0.0 16.28999089631971 0.0 0.0 0.0 34.5300574570662" Properties=species:S:1:pos:R:3:initial_magmoms:R:1 pbc="T T T"
Si      -1.88475952      -0.16369821      -1.35219781       0.00000000
Si      -0.27754902      -0.51188067       2.28057345       0.00000000
Si       1.07448840       2.08148733      -0.36612240       0.00000000
Si       1.75632264      -1.09832067      -1.19871161       0.00000000
Si       2.37923595       1.90793367       1.68175286       0.00000000
Si      -0.75479715       0.15053589      -3.40756609       0.00000000
Si       1.59946623       0.25189227      -3.17538586       0.00000000
Si      -2.12673769      -2.55730194      -1.30585844       0.00000000
Si       1.79670555      -1.69406226       2.80460189       0.00000000
Si      -0.97410942       1.55626515       3.34050869       0.00000000
