10
Lattice="16.28999089631971 0.0 0.0 0.0 16.28999089631971 0.0 0.0 0.0 34.61538196595647" Properties=species:S:1:pos:R:3:initial_magmoms:R:1 pbc="T T T"
Si       0.78918534       1.74680928       1.42553634       0.00000000
Si       0.06185313       0.19349262      -2.43429348       0.00000000
Si      -1.80896215      -0.97373475       1.35087438       0.00000000
Si       1.63779660      -1.92777489      -0.03039232       0.00000000
Si      -2.63893765       1.07450469      -1.12119285       0.00000000
Si       2.13677559       0.51259743       2.87054935       0.00000000
Si       3.30766821      -0.86763798       1.33721861       0.00000000
Si      -0.57407589      -2.22071796       2.88194820       0.00000000
Si       0.51976503       2.42597196      -3.05456686       0.00000000
Si      -2.63655279      -2.92706865       0.12773083       0.00000000
