10
Lattice="16.28999089631971 0.0 0.0 0.0 16.28999089631971 0.0 0.0 0.0 34.61538196595647" Properties=species:S:1:pos:R:3:initial_magmoms:R:1 pbc="T T T"
Si       2.29948011      -0.32917203      -0.26421936       0.00000000
Si      -1.56102183      -0.51645816      -1.72287775       0.00000000
Si      -0.20149101      -1.20753046       2.05016637       0.00000000
Si      -0.60414723       2.34357714       0.42106174       0.00000000
Si      -3.46051565       0.05797611      -0.39738481       0.00000000
Si       2.92410387       0.70335333       1.79965471       0.00000000
Si       1.16743914       0.16358418       3.39850549       0.00000000
Si      -2.88887512       2.00132424       0.82163117       0.00000000
Si       2.83053411       1.22460075      -1.91797016       0.00000000
Si      -1.07344584       1.02337038      -3.48514783       0.00000000
