10
Lattice="16.28999089631971 0.0 0.0 0.0 16.28999089631971 0.0 0.0 0.0 34.61538196595647" Properties=species:S:1:pos:R:3:initial_magmoms:R:1 pbc="T T T"
Si       1.35672894      -1.35677781       1.36100835       0.00000000
Si       1.35443205       1.35413883      -1.36683066       0.00000000
Si      -1.36104579       1.35765747       1.35993527       0.00000000
Si      -1.35519768      -1.36873467      -1.36966220       0.00000000
Si       2.56938912      -0.18505440      -2.70054130       0.00000000
Si       2.71383255      -2.71145421       0.00564231       0.00000000
Si      -2.71612455      -2.71332756      -0.00114231       0.00000000
Si      -0.00167787      -2.71309950       2.71723977       0.00000000
Si       2.71355562       0.00133578       2.71744746       0.00000000
Si      -2.71707263       0.00192222       2.71734362       0.00000000
