10
Lattice="16.28999089631971 0.0 0.0 0.0 16.28999089631971 0.0 0.0 0.0 34.61538196595647" Properties=species:S:1:pos:R:3:initial_magmoms:R:1 pbc="T T T"
Si       1.35567009       1.35624024      -1.35744296       0.00000000
Si      -1.35682668      -1.35811359      -1.35643912       0.00000000
Si       1.35715248      -1.35741312       1.35709681       0.00000000
Si      -1.35733167       1.35777150       1.35768527       0.00000000
Si       0.00027693      -2.71278999      -2.71180515       0.00000000
Si       2.71350675      -2.71388142      -0.00055385       0.00000000
Si       0.00011403      -2.71375110       2.71447054       0.00000000
Si       2.71549413       0.00016290       2.71329362       0.00000000
Si       2.71308321       0.00405621      -2.71578593       0.00000000
Si      -2.71523349      -2.71443528      -0.00020769       0.00000000
