10
Lattice="16.28999089631971 0.0 0.0 0.0 16.28999089631971 0.0 0.0 0.0 34.61538196595647" Properties=species:S:1:pos:R:3:initial_magmoms:R:1 pbc="T T T"
Si       0.07165971      -1.08874215       2.06525869       0.00000000
Si       2.35063071      -0.03684798       0.04565771       0.00000000
Si      -0.52808922      -1.65696993      -1.76330854       0.00000000
Si      -1.41711597       2.15205561      -0.23441550       0.00000000
Si       2.53596204       1.40949225      -1.77327778       0.00000000
Si      -1.75379769      -0.17252739      -3.14705921       0.00000000
Si      -1.82951361      -2.50281189       1.84950089       0.00000000
Si      -3.08866545       1.21028184      -1.64745079       0.00000000
Si      -1.37288862      -3.48972362      -0.36661172       0.00000000
Si      -0.68848056       0.16672815       3.84459416       0.00000000
