10
Lattice="16.28999089631971 0.0 0.0 0.0 16.28999089631971 0.0 0.0 0.0 34.61538196595647" Properties=species:S:1:pos:R:3:initial_magmoms:R:1 pbc="T T T"
Si      -1.37411593      -1.37450133      -1.34730065       0.00000000
Si       1.41030838       1.42798140      -1.28360831       0.00000000
Si       0.39496897      -1.33693659       1.94296248       0.00000000
Si       0.39330739       0.97145415       2.34952036       0.00000000
Si      -1.85960680       1.02767094       2.67199744       0.00000000
Si      -2.95923067      -2.35134747       0.17799239       0.00000000
Si      -2.66513101       0.06186942      -2.76268979       0.00000000
Si       0.04640695      -2.67777138      -2.77110134       0.00000000
Si       3.08185786       2.36975517       0.12942699       0.00000000
Si       2.74517614       0.04517217      -2.78321673       0.00000000
