10
Lattice="16.28999089631971 0.0 0.0 0.0 16.28999089631971 0.0 0.0 0.0 34.61538196595647" Properties=species:S:1:pos:R:3:initial_magmoms:R:1 pbc="T T T"
Si       1.85463279       0.96671376       1.11084284       0.00000000
Si       1.35669636      -1.24740675      -1.50023149       0.00000000
Si      -1.03521321      -1.63258380       1.41441991       0.00000000
Si      -1.34469063       1.47264858      -1.48738918       0.00000000
Si      -2.10447252       1.20117573       1.94078171       0.00000000
Si      -2.70676269      -2.57435757       0.00138462       0.00000000
Si       2.91786480      -2.37514716      -0.12444237       0.00000000
Si       1.13324643       1.49625279       3.29005543       0.00000000
Si       0.00910611      -2.60372844      -2.86951292       0.00000000
Si       2.69092881       2.84982147      -0.11291544       0.00000000
