10
Lattice="16.28999089631971 0.0 0.0 0.0 16.28999089631971 0.0 0.0 0.0 34.61538196595647" Properties=species:S:1:pos:R:3:initial_magmoms:R:1 pbc="T T T"
Si      -2.15850645       0.80311329       0.34965017       0.00000000
Si       0.39273561      -2.16945333      -0.82689271       0.00000000
Si       0.28746963       1.19347056      -2.06349330       0.00000000
Si       0.82675008      -0.36561276       2.26485109       0.00000000
Si      -1.28335878       2.51755434       1.72363929       0.00000000
Si       2.54645280       0.47166066      -2.14456257       0.00000000
Si       2.70259245      -1.87090650      -1.34948142       0.00000000
Si      -3.04194573      -1.05047694       1.51213919       0.00000000
Si      -1.13948550      -2.22156504      -2.63011281       0.00000000
Si      -0.54949428       1.13958324       3.44201704       0.00000000
