10
Lattice="16.28999089631971 0.0 0.0 0.0 16.28999089631971 0.0 0.0 0.0 34.61538196595647" Properties=species:S:1:pos:R:3:initial_magmoms:R:1 pbc="T T T"
Si      -1.50851916      -1.12451499       1.35150438       0.00000000
Si      -0.86301162       0.76303989      -2.08633947       0.00000000
Si       1.18780164       1.62728955       1.41292595       0.00000000
Si       1.76875191      -1.62284238      -0.58763105       0.00000000
Si       1.39388643       1.87813926      -2.02271636       0.00000000
Si       3.02511816       0.07884360      -1.85902013       0.00000000
Si      -0.01811448      -2.26204569       2.76148660       0.00000000
Si      -2.26947393      -2.93625621       0.04790557       0.00000000
Si       2.68535763       0.44339751       2.76613545       0.00000000
Si      -3.00425067       1.78572609      -1.73198160       0.00000000
