10
Lattice="16.28999089631971 0.0 0.0 0.0 16.28999089631971 0.0 0.0 0.0 34.61538196595647" Properties=species:S:1:pos:R:3:initial_magmoms:R:1 pbc="T T T"
Si       1.35728280       1.35659862      -1.35751219       0.00000000
Si      -1.35752715       1.35746199       1.35706219       0.00000000
Si       1.35832536      -1.35795069       1.35768527       0.00000000
Si      -1.35894438      -1.35940050      -1.35751219       0.00000000
Si      -0.00216657       2.71407690       2.71453977       0.00000000
Si      -2.71439456       2.71440270      -0.00031154       0.00000000
Si      -2.71527747       0.00154755       2.71453977       0.00000000
Si       2.71518462       2.71482624      -0.00062308       0.00000000
Si      -2.71497122      -2.71513575      -0.00010385       0.00000000
Si       0.00081450      -2.71500543       2.71578593       0.00000000
