10
Lattice="16.28999089631971 0.0 0.0 0.0 16.28999089631971 0.0 0.0 0.0 34.61538196595647" Properties=species:S:1:pos:R:3:initial_magmoms:R:1 pbc="T T T"
Si       1.34917038       1.35773892      -1.38160451       0.00000000
Si      -1.36726857      -1.35661491      -1.37949297       0.00000000
Si      -1.34195391       1.41993414       1.42155069       0.00000000
Si       1.34469063      -1.47264858       1.48738918       0.00000000
Si      -0.75978189      -0.27147285       3.42817088       0.00000000
Si       2.68263720       2.72565909      -0.00747693       0.00000000
Si       2.70138699      -2.72005533      -0.01284231       0.00000000
Si      -2.72188470      -2.71322982       0.00408462       0.00000000
Si      -2.73213762       2.71318095      -0.02568463       0.00000000
Si       2.70793557       0.00086337      -2.74077824       0.00000000
