10
Lattice="16.28999089631971 0.0 0.0 0.0 16.28999089631971 0.0 0.0 0.0 34.61538196595647" Properties=species:S:1:pos:R:3:initial_magmoms:R:1 pbc="T T T"
Si      -1.35783666       1.35508365      -1.36689297       0.00000000
Si       1.36078515      -1.36055709      -1.36647758       0.00000000
Si      -1.38051234      -1.34904006       1.36710066       0.00000000
Si       1.36954917       1.36278882       1.39558913       0.00000000
Si       2.71448415       2.71405191      -0.00585000       0.00000000
Si      -2.71539639       2.71453302      -0.00661154       0.00000000
Si      -2.71397916      -2.71696023      -0.00702693       0.00000000
Si       2.71428867      -2.71741635      -0.01211539       0.00000000
Si       0.00040725       2.71354750      -2.72333208       0.00000000
Si      -2.71420722      -0.00192222      -2.72364362       0.00000000
