10
Lattice="16.28999089631971 0.0 0.0 0.0 16.28999089631971 0.0 0.0 0.0 34.61538196595647" Properties=species:S:1:pos:R:3:initial_magmoms:R:1 pbc="T T T"
Si      -1.35610992       1.35505011      -1.36017758       0.00000000
Si       1.35755973      -1.35944937      -1.36028143       0.00000000
Si      -1.37225331      -1.35073422       1.36187373       0.00000000
Si       1.35845568       1.36951237       1.36377758       0.00000000
Si      -0.14924898       2.58650081       2.75410517       0.00000000
Si       2.71280628       2.71442618       0.00107308       0.00000000
Si      -2.71251306      -2.71472850      -0.00100385       0.00000000
Si      -2.71156824       2.71693484       0.00076154       0.00000000
Si       2.71539639      -2.71453302       0.00661154       0.00000000
Si       0.00192222       2.71364426      -2.71703208       0.00000000
