10
Lattice="16.28999089631971 0.0 0.0 0.0 16.28999089631971 0.0 0.0 0.0 34.61538196595647" Properties=species:S:1:pos:R:3:initial_magmoms:R:1 pbc="T T T"
Si       2.37175884       0.14911866      -0.23604242       0.00000000
Si      -0.48757599      -1.53982854       1.76227008       0.00000000
Si      -0.74534895      -0.91683378      -2.14342026       0.00000000
Si      -0.77271615       2.37034161      -0.08806158       0.00000000
Si       0.36507519       2.68120368      -2.09655101       0.00000000
Si       2.56209120       2.27379078      -1.18862365       0.00000000
Si      -0.35440524       0.94232763      -3.53537478       0.00000000
Si       2.91967299      -0.89888220      -2.21116260       0.00000000
Si       1.07344584      -1.02337038       3.48514783       0.00000000
Si      -2.81616959      -1.97770374      -1.73353930       0.00000000
