10
Lattice="16.28999089631971 0.0 0.0 0.0 16.28999089631971 0.0 0.0 0.0 34.61538196595647" Properties=species:S:1:pos:R:3:initial_magmoms:R:1 pbc="T T T"
Si       0.34661862       1.17530721       1.94341248       0.00000000
Si       1.29697722      -1.69187940      -1.01845434       0.00000000
Si      -2.07829449      -1.12596480      -0.04797695       0.00000000
Si      -0.30621942       1.91884797      -1.41625453       0.00000000
Si      -2.14742925      -1.15272927      -2.41798963       0.00000000
Si       0.05183478      -1.69701075      -3.03088992       0.00000000
Si      -1.69328034       2.57652414       1.73859315       0.00000000
Si       2.10035115       2.68543908       1.41026606       0.00000000
Si       0.75992850       3.71583601      -0.23427704       0.00000000
Si       0.92232351      -0.28588950       3.71681664       0.00000000
