10
Lattice="16.28999089631971 0.0 0.0 0.0 16.28999089631971 0.0 0.0 0.0 34.61538196595647" Properties=species:S:1:pos:R:3:initial_magmoms:R:1 pbc="T T T"
Si       1.57450995       1.14115360      -1.24459472       0.00000000
Si      -1.23365799      -1.44650380      -1.38918325       0.00000000
Si       1.39188276      -1.22378692       1.50289688       0.00000000
Si      -1.30932504       1.48557307       1.48148033       0.00000000
Si      -2.63357172      -2.61334021       0.10263466       0.00000000
Si       2.31217002      -0.90209459      -2.77182622       0.00000000
Si       0.45737433      -2.52703579      -2.71325696       0.00000000
Si       2.70309744      -2.68252384       0.21584087       0.00000000
Si       0.04214223      -2.57556370       2.86831869       0.00000000
Si       2.73176784       2.74461088       0.11325813       0.00000000
