10
Lattice="16.28999089631971 0.0 0.0 0.0 16.28999089631971 0.0 0.0 0.0 34.61538196595647" Properties=species:S:1:pos:R:3:initial_magmoms:R:1 pbc="T T T"
Si      -1.24440939       1.38407985       1.40565529       0.00000000
Si       1.48110309      -1.32885675       1.37002566       0.00000000
Si       0.79242705       1.90364940      -1.44563404       0.00000000
Si      -2.16101511      -0.68216004      -1.94811121       0.00000000
Si      -0.90464886       1.01952594      -3.21950028       0.00000000
Si      -2.64262896      -2.61754073      -0.05982580       0.00000000
Si      -2.74196538       2.56797189       0.05244579       0.00000000
Si      -2.59752195       0.04157208       2.75862941       0.00000000
Si       0.11719026      -2.67371354       2.75153325       0.00000000
Si       0.11528433       2.75841828       2.75464864       0.00000000
