10
Lattice="16.28999089631971 0.0 0.0 0.0 16.28999089631971 0.0 0.0 0.0 34.61538196595647" Properties=species:S:1:pos:R:3:initial_magmoms:R:1 pbc="T T T"
Si       1.77171669       0.84564648      -1.32698141       0.00000000
Si       0.89344134      -0.45690192       2.17215105       0.00000000
Si      -1.08351306      -1.75521671      -1.25653907       0.00000000
Si      -1.04111019       2.29335507       0.43587713       0.00000000
Si      -1.20084993       0.24202053       3.18392461       0.00000000
Si       2.11918239       1.61420868       2.14487411       0.00000000
Si       0.32410584       2.17297197      -2.75431287       0.00000000
Si      -2.41212546      -0.54375531      -2.76341672       0.00000000
Si       0.36222444       3.22501275       2.20583183       0.00000000
Si       3.58536384       1.59433488       0.14268468       0.00000000
