10
Lattice="16.28999089631971 0.0 0.0 0.0 16.28999089631971 0.0 0.0 0.0 34.61538196595647" Properties=species:S:1:pos:R:3:initial_magmoms:R:1 pbc="T T T"
Si      -2.10167064      -0.71470746       0.68445033       0.00000000
Si       1.17957519      -1.79364303       0.89210812       0.00000000
Si       1.15004142       1.89201834       0.75170805       0.00000000
Si       0.62758854       0.43425882      -2.24525878       0.00000000
Si       3.28173453       1.21275792       0.13358083       0.00000000
Si       2.93479011       0.14612130      -1.95082017       0.00000000
Si       3.32174277      -0.81709011       1.31936602       0.00000000
Si       0.34894809       3.62514402      -0.51054255       0.00000000
Si      -2.44946214       0.47045520       2.71869362       0.00000000
Si       1.41876126      -3.29684676      -0.89574274       0.00000000
