10
Lattice="16.28999089631971 0.0 0.0 0.0 16.28999089631971 0.0 0.0 0.0 34.61538196595647" Properties=species:S:1:pos:R:3:initial_magmoms:R:1 pbc="T T T"
Si       1.42019478      -0.20681784       1.83292011       0.00000000
Si       0.52274610       2.15713809      -0.74783113       0.00000000
Si      -2.22176052      -0.42031458       0.61141183       0.00000000
Si      -0.28927782      -1.15852851      -2.04978560       0.00000000
Si       1.10560230      -2.51213954       1.93981247       0.00000000
Si      -1.67716953       2.88093537      -0.52123871       0.00000000
Si      -3.16864935       1.09638216      -0.99889664       0.00000000
Si      -1.01017548      -3.20542582      -1.22964290       0.00000000
Si      -2.40850908      -0.15908814      -2.77823211       0.00000000
Si       3.52186542       0.50788962       1.14846978       0.00000000
