10
Lattice="16.28999089631971 0.0 0.0 0.0 16.28999089631971 0.0 0.0 0.0 34.61538196595647" Properties=species:S:1:pos:R:3:initial_magmoms:R:1 pbc="T T T"
Si       0.93835287       2.13990327      -0.22950011       0.00000000
Si       1.75695795      -1.61080407      -0.06095772       0.00000000
Si      -0.75105045       0.33267438       2.28004725       0.00000000
Si      -1.40333463      -0.93165768      -1.76995470       0.00000000
Si      -0.32591403       2.37022758      -2.30552419       0.00000000
Si      -1.56307437      -2.98299222       0.97809278       0.00000000
Si       2.87565741      -0.88231527       1.93108939       0.00000000
Si       0.53121690      -3.68191467      -0.03368079       0.00000000
Si       3.06867762       1.47180150       1.51120458       0.00000000
Si      -1.27379655      -1.82446371       3.02787838       0.00000000
