10
Lattice="16.28999089631971 0.0 0.0 0.0 16.28999089631971 0.0 0.0 0.0 34.61538196595647" Properties=species:S:1:pos:R:3:initial_magmoms:R:1 pbc="T T T"
Si      -0.18533133      -1.44634023       1.81893549       0.00000000
Si      -1.56116844       1.12774041      -1.37578913       0.00000000
Si       1.17988470      -1.56672333      -1.37125451       0.00000000
Si       0.89208927       1.85554503       1.28336600       0.00000000
Si      -2.53596204      -1.40949225       1.77327778       0.00000000
Si      -0.19940589       2.48829750      -2.74389363       0.00000000
Si      -1.06323201       3.34186092       1.23528521       0.00000000
Si       2.51634888      -0.22664277      -2.74680132       0.00000000
Si      -2.91786480       2.37514716       0.12444237       0.00000000
Si       2.65567725       2.67516009      -0.01180385       0.00000000
