10
Lattice="16.28999089631971 0.0 0.0 0.0 16.28999089631971 0.0 0.0 0.0 34.61538196595647" Properties=species:S:1:pos:R:3:initial_magmoms:R:1 pbc="T T T"
Si       0.03989421       1.11470352      -2.03348175       0.00000000
Si      -1.98445499      -1.27955899       0.18432701       0.00000000
Si       2.06656569      -1.31891563       0.06898849       0.00000000
Si      -1.09213699      -2.67038290       2.00236250       0.00000000
Si       2.26053072       1.04690291      -2.74683594       0.00000000
Si      -0.24243430       3.41690406      -1.68798543       0.00000000
Si      -1.75390262      -0.84547936       3.32427453       0.00000000
Si       3.06612009      -1.08108163      -2.08879716       0.00000000
Si       1.42899138       1.52102499       3.29240714       0.00000000
Si      -3.55916042      -0.19992554       1.72170083       0.00000000
