10
Lattice="16.28999089631971 0.0 0.0 0.0 16.28999089631971 0.0 0.0 0.0 34.61538196595647" Properties=species:S:1:pos:R:3:initial_magmoms:R:1 pbc="T T T"
Si      -1.35883035       1.35583299       1.35456988       0.00000000
Si       1.35835794       1.35627282      -1.35716604       0.00000000
Si      -1.35739683      -1.35829278      -1.35726989       0.00000000
Si       1.35873261      -1.35990549       1.36010835       0.00000000
Si      -2.70853830       0.02239875       2.71419362       0.00000000
Si      -2.71233387       2.71269225       0.00020769       0.00000000
Si       0.00050499       2.71417464      -2.71450516       0.00000000
Si      -2.71445157      -0.00128691      -2.71474746       0.00000000
Si       2.71689507       2.71298547       0.00020769       0.00000000
Si       0.00030951      -2.71577106      -2.71429746       0.00000000
