10
Lattice="16.28999089631971 0.0 0.0 0.0 16.28999089631971 0.0 0.0 0.0 34.61538196595647" Properties=species:S:1:pos:R:3:initial_magmoms:R:1 pbc="T T T"
Si       2.16376812      -0.73741572      -0.27550398       0.00000000
Si      -1.95789510      -1.21757976      -0.18969240       0.00000000
Si       0.03650589       2.09316726      -1.07131206       0.00000000
Si       2.02505877      -1.74602736      -2.42525886       0.00000000
Si      -3.70095768       0.34627653       0.16283085       0.00000000
Si      -1.93354155      -2.79669978       1.56066998       0.00000000
Si       2.27442609       2.49513930      -1.82007780       0.00000000
Si      -1.20863655       2.08803591      -3.08374764       0.00000000
Si       3.33800019       0.59020299       2.08312024       0.00000000
Si      -1.26047133       3.78504666      -0.05285772       0.00000000
