10
Lattice="16.28999089631971 0.0 0.0 0.0 16.28999089631971 0.0 0.0 0.0 34.61538196595647" Properties=species:S:1:pos:R:3:initial_magmoms:R:1 pbc="T T T"
Si       1.48037004       1.20906009      -1.33358399       0.00000000
Si      -1.26513027       1.37613033       1.40761453       0.00000000
Si       1.45062450      -1.34610786       1.37861720       0.00000000
Si      -1.79975178      -0.90455112      -1.45390713       0.00000000
Si      -0.00897579      -1.96841844      -2.85479242       0.00000000
Si      -2.58778053       2.68807806      -0.00286616       0.00000000
Si       2.74888863       2.61889443       0.11034005       0.00000000
Si      -2.62700685       0.01159848       2.75610248       0.00000000
Si      -2.74704786      -2.68851789      -0.15467892       0.00000000
Si       0.08578314      -2.70653463       2.75973710       0.00000000
