10
Lattice="16.28999089631971 0.0 0.0 0.0 16.28999089631971 0.0 0.0 0.0 34.61538196595647" Properties=species:S:1:pos:R:3:initial_magmoms:R:1 pbc="T T T"
Si      -1.32265026       1.31194773      -1.41048068       0.00000000
Si       1.26513027      -1.37613033      -1.40761453       0.00000000
Si       1.35306369       1.34972424       1.35520335       0.00000000
Si      -1.36187658      -1.36453185       1.34848796       0.00000000
Si      -2.41999353      -0.43559460      -2.68156825       0.00000000
Si      -0.53462151      -2.28068145      -2.86152165       0.00000000
Si       0.07726347       2.47878414      -2.90229859       0.00000000
Si       2.70280422       2.70150102      -0.01021847       0.00000000
Si      -0.00531054       2.70576756       2.71095015       0.00000000
Si       2.70927135      -0.00687438       2.71146938       0.00000000
