10
Lattice="16.28999089631971 0.0 0.0 0.0 16.28999089631971 0.0 0.0 0.0 34.61538196595647" Properties=species:S:1:pos:R:3:initial_magmoms:R:1 pbc="T T T"
Si      -1.68257781      -0.20650833      -1.59372769       0.00000000
Si      -0.96513363      -1.51039251       1.52588151       0.00000000
Si      -0.21380625       2.11975254       1.04126589       0.00000000
Si       1.86162120      -1.04094729      -1.05438512       0.00000000
Si      -1.34496756      -2.48140683      -1.89065860       0.00000000
Si       2.49351030      -2.37087918       0.73557728       0.00000000
Si      -3.17503503       1.41538923      -0.72640420       0.00000000
Si       2.02505877       2.78933670       0.94721584       0.00000000
Si      -1.52746443       3.18909804      -0.60313875       0.00000000
Si      -0.00218286       2.67903711      -2.40282808       0.00000000
