10
Lattice="16.28999089631971 0.0 0.0 0.0 16.28999089631971 0.0 0.0 0.0 34.61538196595647" Properties=species:S:1:pos:R:3:initial_magmoms:R:1 pbc="T T T"
Si       1.23365799       1.44650380       1.38918325       0.00000000
Si      -1.39991373      -1.16683641       1.49181791       0.00000000
Si       1.69103232      -1.08053199      -1.32407372       0.00000000
Si      -1.31922936       0.05694984      -2.08582024       0.00000000
Si       0.59350986      -0.35344413      -3.33740930       0.00000000
Si      -3.07296189      -1.45318203      -1.55267383       0.00000000
Si       2.66823684      -2.64585438       0.16110008       0.00000000
Si      -0.07726347      -2.47878414       2.90229859       0.00000000
Si       2.80816794       2.58765740       0.14458853       0.00000000
Si      -2.49725700      -2.91437874       0.22073034       0.00000000
