10
Lattice="16.28999089631971 0.0 0.0 0.0 16.28999089631971 0.0 0.0 0.0 34.61538196595647" Properties=species:S:1:pos:R:3:initial_magmoms:R:1 pbc="T T T"
Si       1.35407898      -1.35801577       1.35962373       0.00000000
Si       1.36006839       1.35441087      -1.36118835       0.00000000
Si      -1.35860229       1.35906981       1.35803142       0.00000000
Si      -1.36645407      -1.36144882      -1.36258335       0.00000000
Si      -0.02656899       2.60694897      -2.75222210       0.00000000
Si       2.71496538      -2.71387720       0.00103846       0.00000000
Si       2.71281510       0.00143352       2.71606285       0.00000000
Si      -2.71619460      -2.71322560       0.00283846       0.00000000
Si      -0.00249237      -2.71303012       2.71640900       0.00000000
Si       2.71374688       2.71646664      -0.00218077       0.00000000
