10
Lattice="16.28999089631971 0.0 0.0 0.0 16.28999089631971 0.0 0.0 0.0 34.61538196595647" Properties=species:S:1:pos:R:3:initial_magmoms:R:1 pbc="T T T"
Si       1.35654975       1.35769005       1.35820450       0.00000000
Si      -1.35788553      -1.35803051       1.35827373       0.00000000
Si      -1.35778779       1.35669636      -1.36083527       0.00000000
Si       1.35860229      -1.35906981      -1.35803142       0.00000000
Si       2.71280530       2.71425609      -0.00013846       0.00000000
Si       2.71406152       0.00013032       2.71526669       0.00000000
Si       2.71268127      -2.71708558       0.00159231       0.00000000
Si      -0.00104256      -2.71488500       2.71543977       0.00000000
Si      -0.00057015       2.71467963       2.71588977       0.00000000
Si      -2.71655298       2.71450044      -0.00017308       0.00000000
