10
Lattice="16.28999089631971 0.0 0.0 0.0 16.28999089631971 0.0 0.0 0.0 34.61538196595647" Properties=species:S:1:pos:R:3:initial_magmoms:R:1 pbc="T T T"
Si      -1.35946566      -1.33801133      -1.38288528       0.00000000
Si      -1.24704837       1.42138395       1.41656607       0.00000000
Si       1.35498591       1.37829690      -1.38042759       0.00000000
Si       1.38502467      -1.41355565       1.53972767       0.00000000
Si       0.56659878       2.17007235       2.88623216       0.00000000
Si      -2.70440064      -2.68927442       0.01855386       0.00000000
Si       2.72073951      -2.69223920      -0.00789231       0.00000000
Si       2.42128044       0.33689349       2.94791681       0.00000000
Si      -0.00074934      -2.69583929      -2.74406671       0.00000000
Si      -2.69465922       2.74870944      -0.01076539       0.00000000
