10
Lattice="16.28999089631971 0.0 0.0 0.0 16.28999089631971 0.0 0.0 0.0 34.61538196595647" Properties=species:S:1:pos:R:3:initial_magmoms:R:1 pbc="T T T"
Si       1.35602684       1.35573525      -1.35740835       0.00000000
Si      -1.35709617       1.35738054       1.35713142       0.00000000
Si       1.35804680      -1.35824391       1.35758142       0.00000000
Si      -1.35859580      -1.35839052      -1.35841219       0.00000000
Si      -2.71359702       0.00084708       2.71481669       0.00000000
Si      -2.71418346       0.00109143      -2.71460900       0.00000000
Si      -0.00041702      -2.71601541       2.71363977       0.00000000
Si      -2.71485135      -2.71495656      -0.00006923       0.00000000
Si      -2.71486764       2.71502172      -0.00031154       0.00000000
Si       2.71497122       2.71513575       0.00010385       0.00000000
