10
Lattice="16.28999089631971 0.0 0.0 0.0 16.28999089631971 0.0 0.0 0.0 34.61538196595647" Properties=species:S:1:pos:R:3:initial_magmoms:R:1 pbc="T T T"
Si      -1.17957519       1.79364303      -0.89210812       0.00000000
Si       0.23918607      -1.50320373      -1.78785086       0.00000000
Si       2.14216758       0.97655292       0.42725790       0.00000000
Si      -0.98717400      -0.68370922       2.07979716       0.00000000
Si      -3.28124583       1.07893557      -0.20765779       0.00000000
Si       1.10755710      -1.17822801       3.08083995       0.00000000
Si       2.12538888      -0.35989497      -2.78505134       0.00000000
Si       2.00137311       0.98912880       2.75420902       0.00000000
Si      -0.02953377       3.68566137      -0.14040007       0.00000000
Si       2.10215934       3.00640095      -0.75852729       0.00000000
