10
Lattice="16.28999089631971 0.0 0.0 0.0 16.28999089631971 0.0 0.0 0.0 34.61538196595647" Properties=species:S:1:pos:R:3:initial_magmoms:R:1 pbc="T T T"
Si      -0.27645759       0.17894891      -2.33460113       0.00000000
Si       2.37229219       0.23655686      -0.16151546       0.00000000
Si      -1.23163803       1.61519422       1.26266599       0.00000000
Si      -0.54626886      -2.28851598       0.43203482       0.00000000
Si       0.94897395      -1.88100534      -2.82447829       0.00000000
Si       0.61735842       2.34630572      -2.66123205       0.00000000
Si      -3.43321524       1.43940884       0.15594238       0.00000000
Si       2.96631845      -1.57325466      -1.63076617       0.00000000
Si       2.67603228       2.15610368      -1.54568151       0.00000000
Si       0.97901271      -2.98874163       2.11070871       0.00000000
