10
Lattice="16.28999089631971 0.0 0.0 0.0 16.28999089631971 0.0 0.0 0.0 34.61538196595647" Properties=species:S:1:pos:R:3:initial_magmoms:R:1 pbc="T T T"
Si       1.35692442       1.35591444      -1.35771989       0.00000000
Si      -1.35770634       1.35747828       1.35702758       0.00000000
Si       1.35799956      -1.35827649       1.35754681       0.00000000
Si      -1.35798327      -1.35845568      -1.35851604       0.00000000
Si      -2.71389771      -0.00073305       2.71332823       0.00000000
Si      -0.00070047      -2.71456560       2.71402054       0.00000000
Si      -0.00117288       2.71235016      -2.71661669       0.00000000
Si      -2.71476108       2.71448415      -0.00045000       0.00000000
Si       2.71510317       2.71471221      -0.00038077       0.00000000
Si      -0.00030951       2.71577106       2.71429746       0.00000000
