10
Lattice="16.28999089631971 0.0 0.0 0.0 16.28999089631971 0.0 0.0 0.0 34.61538196595647" Properties=species:S:1:pos:R:3:initial_magmoms:R:1 pbc="T T T"
Si       1.35795069      -1.35532800      -1.35965835       0.00000000
Si      -1.35873261       1.35990549      -1.36010835       0.00000000
Si       1.35630540       1.37627694       1.36291220       0.00000000
Si      -1.35702216      -1.36870209       1.38828528       0.00000000
Si      -2.57676849       0.18582003       2.73229747       0.00000000
Si       2.71093293      -2.71464705       0.00062308       0.00000000
Si       2.71270934       2.71531494      -0.00550385       0.00000000
Si      -0.00042354      -2.71414206      -2.71685900       0.00000000
Si       2.71445154       0.00120546      -2.71734362       0.00000000
Si      -2.71609686      -2.71598283      -0.00270000       0.00000000
