10
Lattice="16.28999089631971 0.0 0.0 0.0 16.28999089631971 0.0 0.0 0.0 34.61538196595647" Properties=species:S:1:pos:R:3:initial_magmoms:R:1 pbc="T T T"
Si      -0.99458595      -1.08561447       1.73298545       0.00000000
Si       2.25291419      -0.05621679      -0.32247708       0.00000000
Si      -0.94353309       2.09525238      -0.05233849       0.00000000
Si       2.25457577      -2.36460753      -0.72903497       0.00000000
Si       1.85960680      -1.02767094      -2.67199744       0.00000000
Si      -3.10876731       1.55663982       1.01866203       0.00000000
Si      -3.30178752      -0.79747695       1.43854685       0.00000000
Si      -1.24897059       2.42587422      -2.49438582       0.00000000
Si       3.34291067      -0.31873014       1.82253549       0.00000000
Si       0.20070909      -3.81045580      -0.37800018       0.00000000
