10
Lattice="16.28999089631971 0.0 0.0 0.0 16.28999089631971 0.0 0.0 0.0 34.61538196595647" Properties=species:S:1:pos:R:3:initial_magmoms:R:1 pbc="T T T"
Si      -2.18559672      -0.86485239      -0.21555010       0.00000000
Si       1.02089171      -0.51952068      -2.10589717       0.00000000
Si       0.35241786       2.38969413       0.09387697       0.00000000
Si       0.67476438      -0.71684145       2.22570107       0.00000000
Si      -3.15876132       1.25027379      -0.07857696       0.00000000
Si       2.46008878       2.10748617       1.07941206       0.00000000
Si      -1.44964710      -1.37785707       3.01593607       0.00000000
Si       3.20869736      -1.09726182      -1.55132383       0.00000000
Si      -2.26150812      -2.70549207       1.21939674       0.00000000
Si       1.66122718       1.24611984       3.11452073       0.00000000
