10
Lattice="16.28999089631971 0.0 0.0 0.0 16.28999089631971 0.0 0.0 0.0 34.61538196595647" Properties=species:S:1:pos:R:3:initial_magmoms:R:1 pbc="T T T"
Si       1.91063848      -0.80301555      -1.14400440       0.00000000
Si      -1.01092482       0.15071508       2.20060491       0.00000000
Si      -2.02595472      -0.17449848      -1.33123910       0.00000000
Si       1.23620479       2.08468017       0.30004630       0.00000000
Si      -1.93144014       2.49846246       1.88235091       0.00000000
Si      -2.95142220      -1.42105815       1.77400470       0.00000000
Si       1.72621939       0.03583800      -3.43139012       0.00000000
Si      -3.82202496       0.33029604       0.20949241       0.00000000
Si      -0.35823339       3.81200661       0.61833491       0.00000000
Si       0.83901386       0.07788249       3.84310602       0.00000000
