10
Lattice="16.28999089631971 0.0 0.0 0.0 16.28999089631971 0.0 0.0 0.0 34.61538196595647" Properties=species:S:1:pos:R:3:initial_magmoms:R:1 pbc="T T T"
Si      -1.59309684      -1.04912487       1.39628144       0.00000000
Si      -1.09159290       0.61789599      -2.01672790       0.00000000
Si       1.14281422       1.91840814       0.86105811       0.00000000
Si       1.26280636      -2.02096998      -0.54609257       0.00000000
Si       2.06166796      -1.15960365      -2.58120124       0.00000000
Si      -2.92859991      -0.80531244      -1.82319319       0.00000000
Si      -0.04600296      -0.87739569      -3.56673634       0.00000000
Si      -2.74901895      -2.49678459      -0.16913085       0.00000000
Si       2.38329935       1.05702552       2.68639745       0.00000000
Si      -0.31688937      -1.98057078       3.23262848       0.00000000
