10
Lattice="16.28999089631971 0.0 0.0 0.0 16.28999089631971 0.0 0.0 0.0 34.61538196595647" Properties=species:S:1:pos:R:3:initial_magmoms:R:1 pbc="T T T"
Si       1.36092687       1.34459289      -1.36851989       0.00000000
Si      -1.35367849      -1.36205577      -1.35900758       0.00000000
Si       1.35714759      -1.35801585       1.36080066       0.00000000
Si      -1.35954388       1.35685926       1.36007373       0.00000000
Si      -0.08420138       2.65750173      -2.67960591       0.00000000
Si       2.58919287      -0.22353138      -2.76082056       0.00000000
Si       2.71612455       2.71332756       0.00114231       0.00000000
Si      -2.71374688      -2.71646664       0.00218077       0.00000000
Si      -2.71513153       2.71634121       0.00387692       0.00000000
Si       2.71444668       0.00022806       2.71838208       0.00000000
