10
Lattice="16.28999089631971 0.0 0.0 0.0 16.28999089631971 0.0 0.0 0.0 34.61538196595647" Properties=species:S:1:pos:R:3:initial_magmoms:R:1 pbc="T T T"
Si      -2.25291419       0.05621679       0.32247708       0.00000000
Si       0.00166158      -2.30839074      -0.40655789       0.00000000
Si       1.08999648      -0.26251335       2.14501257       0.00000000
Si      -0.39330739      -0.97145415      -2.34952036       0.00000000
Si       2.68855047       1.39830102      -2.22009338       0.00000000
Si       1.01700099       0.45652725      -3.63312868       0.00000000
Si      -3.19644728       2.15146917       0.27013859       0.00000000
Si       3.41718588      -0.58702644       1.85891628       0.00000000
Si       2.27615283      -3.25656648      -0.13617699       0.00000000
Si      -3.24750014      -1.02939768       2.05546253       0.00000000
