10
Lattice="16.28999089631971 0.0 0.0 0.0 16.28999089631971 0.0 0.0 0.0 34.61538196595647" Properties=species:S:1:pos:R:3:initial_magmoms:R:1 pbc="T T T"
Si       1.31121468      -1.45873692      -1.28705601       0.00000000
Si      -1.34974053      -1.35177678       1.36542181       0.00000000
Si       1.36645407       1.36144882       1.36258335       0.00000000
Si      -1.39188276       1.22378692      -1.50289688       0.00000000
Si       0.18262719       2.36494052      -2.74749160       0.00000000
Si      -2.70280422      -2.70150102       0.01021847       0.00000000
Si      -2.70120780       2.70935999      -0.02141655       0.00000000
Si       2.72554506      -0.32386149      -2.67214940       0.00000000
Si      -2.70811476       0.00426654       2.72116862       0.00000000
Si       0.00646713      -2.70837540       2.72168785       0.00000000
