10
Lattice="16.28999089631971 0.0 0.0 0.0 16.28999089631971 0.0 0.0 0.0 34.61538196595647" Properties=species:S:1:pos:R:3:initial_magmoms:R:1 pbc="T T T"
Si       1.23488626      -1.24698321       1.53107382       0.00000000
Si      -0.82759064      -1.95333390      -1.22314355       0.00000000
Si       1.80896215       0.97373475      -1.35087438       0.00000000
Si      -1.47121573       1.45909530       1.51927343       0.00000000
Si      -0.82997550       2.04823944      -2.47206723       0.00000000
Si       2.53657129      -2.66558157       0.08692620       0.00000000
Si      -2.53697269       0.41948379      -2.72520966       0.00000000
Si       2.59814749       2.72054403       0.07466196       0.00000000
Si      -2.83037188      -2.58522300       0.03351463       0.00000000
Si       3.44675875      -0.95404014      -1.38126671       0.00000000
