10
Lattice="16.28999089631971 0.0 0.0 0.0 16.28999089631971 0.0 0.0 0.0 34.61538196595647" Properties=species:S:1:pos:R:3:initial_magmoms:R:1 pbc="T T T"
Si       1.32743952       1.72950930       0.83731194       0.00000000
Si       1.32590826      -1.86888654      -0.51739640       0.00000000
Si      -0.86667687      -0.70030710       2.09302024       0.00000000
Si      -1.41968979       0.94224618      -1.68037004       0.00000000
Si      -2.42330203      -1.18203498      -2.09243178       0.00000000
Si       0.17941806       3.56760774      -0.01623462       0.00000000
Si       3.32356725      -0.78693732      -1.04908897       0.00000000
Si      -2.08958346       2.88688122      -0.47007715       0.00000000
Si       1.03438242      -0.55653156       3.47099014       0.00000000
Si       3.52670355       1.18522782       0.22441165       0.00000000
