10
Lattice="16.28999089631971 0.0 0.0 0.0 16.28999089631971 0.0 0.0 0.0 34.61538196595647" Properties=species:S:1:pos:R:3:initial_magmoms:R:1 pbc="T T T"
Si      -1.34063442      -1.37539728      -1.35177296       0.00000000
Si       1.35870003      -1.35650088       1.36062758       0.00000000
Si      -1.35716877       1.35966114       1.36010835       0.00000000
Si       1.37021706       1.35791811      -1.36317181       0.00000000
Si       0.02262681       2.59212996      -2.80818482       0.00000000
Si      -2.71364521      -2.70824508       0.00058846       0.00000000
Si      -2.71138742       2.71616202       0.00276923       0.00000000
Si       2.72023452      -2.71003698       0.00027692       0.00000000
Si      -2.71297732       0.00130320       2.71782823       0.00000000
Si       0.00141723      -2.71309950       2.71813977       0.00000000
