10
Lattice="16.28999089631971 0.0 0.0 0.0 16.28999089631971 0.0 0.0 0.0 34.61538196595647" Properties=species:S:1:pos:R:3:initial_magmoms:R:1 pbc="T T T"
Si       1.35421865      -1.35650088       1.35733912       0.00000000
Si       1.34247356       1.34393671      -1.38624990       0.00000000
Si      -1.36088639       1.35586143       1.35858527       0.00000000
Si      -1.33534899      -1.38548079      -1.36634258       0.00000000
Si      -2.77020477      -0.10630854      -2.65067782       0.00000000
Si       2.71138742      -2.71616202      -0.00276923       0.00000000
Si       2.71313045       0.00006516       2.71526669       0.00000000
Si      -2.71496538       2.71387720      -0.00103846       0.00000000
Si       2.71630700       2.71353186      -0.00245769       0.00000000
Si      -0.00158990      -2.71485882       2.71505900       0.00000000
