10
Lattice="16.28999089631971 0.0 0.0 0.0 16.28999089631971 0.0 0.0 0.0 34.61538196595647" Properties=species:S:1:pos:R:3:initial_magmoms:R:1 pbc="T T T"
Si      -1.35807938      -1.35701727       1.35744296       0.00000000
Si       1.35729909       1.35824391       1.35758142       0.00000000
Si      -1.35714759       1.35801585      -1.36080066       0.00000000
Si       1.36037790      -1.35879614      -1.36003912       0.00000000
Si       2.71331127      -2.71439626       0.00038077       0.00000000
Si      -0.00022806      -2.71445019       2.71460900       0.00000000
Si      -2.71543525       0.00074934       2.71467823       0.00000000
Si       2.71502172       0.00078192       2.71509362       0.00000000
Si       2.71570590       2.71456560       0.00135000       0.00000000
Si      -0.00004887       2.71502172       2.71526669       0.00000000
