10
Lattice="16.28999089631971 0.0 0.0 0.0 16.28999089631971 0.0 0.0 0.0 34.61538196595647" Properties=species:S:1:pos:R:3:initial_magmoms:R:1 pbc="T T T"
Si       0.02143764       0.35354187      -2.37527422       0.00000000
Si       0.90425790      -2.23471107       0.30489245       0.00000000
Si       2.01083760       0.69193404       1.21223135       0.00000000
Si      -2.07879296      -1.53979596       0.69441957       0.00000000
Si      -2.73485317      -0.52114968      -1.38714298       0.00000000
Si       0.62587809       1.27819485       3.03698223       0.00000000
Si      -1.81284894       1.95817203      -2.08512793       0.00000000
Si      -0.99013878      -0.48014775       3.27475543       0.00000000
Si      -0.00785178      -3.34757871      -1.54685844       0.00000000
Si      -2.82122275       2.66100408       0.65385032       0.00000000
