10
Lattice="10.86 0.0 0.0 0.0 10.86 0.0 0.0 0.0 10.86" Properties=species:S:1:pos:R:3:initial_magmoms:R:1 pbc="T T T"
Si      -1.39981056      -1.27586538       1.24154778       0.00000000
Si       1.31518944      -1.27586538      -1.47345222       0.00000000
Si      -1.39981056       1.43913462      -1.47345222       0.00000000
Si       1.49276130       1.73917470       1.45812876       0.00000000
Si       2.59674546      -2.51120124       0.04089876       0.00000000
Si      -0.08786826      -2.43421470       2.72525184       0.00000000
Si      -2.75731056       0.08163462       2.59904778       0.00000000
Si      -2.75731056      -2.63336538      -0.11595222       0.00000000
Si      -0.04231056      -2.63336538      -2.83095222       0.00000000
Si       2.67268944       0.08163462      -2.83095222       0.00000000
