10
Lattice="10.86 0.0 0.0 0.0 10.86 0.0 0.0 0.0 10.86" Properties=species:S:1:pos:R:3:initial_magmoms:R:1 pbc="T T T"
Si       1.29724872       1.28120850       1.29443598       0.00000000
Si      -1.24017942      -1.13375142       1.51101696       0.00000000
Si      -1.41775128       1.28120850      -1.42056402       0.00000000
Si       1.29724872      -1.43379150      -1.42056402       0.00000000
Si      -0.06025128       2.63870850       2.65193598       0.00000000
Si       2.65474872       2.63870850      -0.06306402       0.00000000
Si       2.90908992       0.02052540       2.40308994       0.00000000
Si       2.46207060      -2.88928128      -0.07952778       0.00000000
Si      -2.77525128       2.63870850      -0.06306402       0.00000000
Si      -0.06025128       2.63870850      -2.77806402       0.00000000
