10
Lattice="10.86 0.0 0.0 0.0 10.86 0.0 0.0 0.0 10.86" Properties=species:S:1:pos:R:3:initial_magmoms:R:1 pbc="T T T"
Si      -1.22273826      -1.32809112       1.28892996       0.00000000
Si       1.49226174       1.38690888       1.28892996       0.00000000
Si       1.49226174      -1.32809112      -1.42607004       0.00000000
Si      -2.58023826      -2.68559112      -0.06857004       0.00000000
Si       0.13476174      -2.68559112       2.64642996       0.00000000
Si      -2.74744968      -0.01746288       2.58721038       0.00000000
Si       0.17549760       2.69431170      -2.67582798       0.00000000
Si       0.13476174      -2.68559112      -2.78357004       0.00000000
Si      -2.52817542      -0.14921640      -2.94024726       0.00000000
Si       2.84976174       0.02940888       2.64642996       0.00000000
