10
Lattice="16.28999089631971 0.0 0.0 0.0 16.28999089631971 0.0 0.0 0.0 34.185847837958455" Properties=species:S:1:pos:R:3:initial_magmoms:R:1 pbc="T T T"
Si      -0.67970025       0.02736720       2.21497069       0.00000000
Si       1.94171913       1.29090105      -0.37098503       0.00000000
Si      -1.80899798       0.76701465      -1.32042911       0.00000000
Si       0.42259518      -2.22972633      -0.77027595       0.00000000
Si       2.02241979      -1.55737287      -2.40227506       0.00000000
Si       3.41008344      -0.47021085      -0.84842485       0.00000000
Si      -1.20546000      -0.08042373      -3.47694197       0.00000000
Si      -2.31572287      -1.77269409       2.27510363       0.00000000
Si      -1.13655330       2.39818122       2.70198255       0.00000000
Si       1.10897433       0.16961148      -3.71890954       0.00000000
