10
Lattice="16.28999089631971 0.0 0.0 0.0 16.28999089631971 0.0 0.0 0.0 34.185847837958455" Properties=species:S:1:pos:R:3:initial_magmoms:R:1 pbc="T T T"
Si       1.38220650      -1.24174013       1.48281540       0.00000000
Si      -0.96651828      -1.73646743      -1.32499091       0.00000000
Si       1.80338445       0.86888091      -1.31829048       0.00000000
Si      -1.32444216       1.46310753       1.44085225       0.00000000
Si       2.53886166      -2.67864845       0.07517814       0.00000000
Si       0.63698787      -3.53441102      -1.18063490       0.00000000
Si       3.38116869      -0.95674102      -1.40102028       0.00000000
Si      -2.71977840      -2.65870949       0.08588515       0.00000000
Si       2.68185528       2.73019260       0.11026651       0.00000000
Si       0.04285899      -2.60252528       2.83503395       0.00000000
