10
Lattice="16.28999089631971 0.0 0.0 0.0 16.28999089631971 0.0 0.0 0.0 34.185847837958455" Properties=species:S:1:pos:R:3:initial_magmoms:R:1 pbc="T T T"
Si       0.39644973       2.38966155       0.11913775       0.00000000
Si      -0.69817311      -1.30144720      -1.99426673       0.00000000
Si      -1.44632394      -0.36512406       2.03440094       0.00000000
Si       2.74281246      -0.44909901      -0.08173841       0.00000000
Si       0.69292773       2.50737309      -2.26477950       0.00000000
Si      -1.82232972      -2.61230417       1.53590263       0.00000000
Si      -0.17148483       0.58323087      -3.48388170       0.00000000
Si       0.80198928      -3.29606063      -1.99477952       0.00000000
Si       2.43947637       2.92693833       1.36165727       0.00000000
Si      -1.54572552       3.74021658       0.92872745       0.00000000
