10
Lattice="16.28999089631971 0.0 0.0 0.0 16.28999089631971 0.0 0.0 0.0 34.185847837958455" Properties=species:S:1:pos:R:3:initial_magmoms:R:1 pbc="T T T"
Si       2.25401472       0.38986857       0.30716001       0.00000000
Si      -1.03162452      -0.61423467       2.02322216       0.00000000
Si      -0.88649040      -1.98867084      -0.95375150       0.00000000
Si      -1.35852736       1.76100113      -1.05890723       0.00000000
Si      -2.71496375      -1.29460281       0.44520255       0.00000000
Si      -3.34861217       0.46085062      -0.93129139       0.00000000
Si      -1.20317451       3.28934522       0.90031899       0.00000000
Si       2.30467662       1.97628977       2.01580383       0.00000000
Si      -0.15280020       2.04858479      -3.13074169       0.00000000
Si       0.02456532      -3.73606656       0.34503796       0.00000000
