10
Lattice="16.28999089631971 0.0 0.0 0.0 16.28999089631971 0.0 0.0 0.0 34.185847837958455" Properties=species:S:1:pos:R:3:initial_magmoms:R:1 pbc="T T T"
Si      -1.35360126       1.35128808      -1.35765752       0.00000000
Si      -1.35685926      -1.35677781       1.35711055       0.00000000
Si       1.35840681       1.35764118       1.35680287       0.00000000
Si       1.35918873      -1.35586557      -1.35892240       0.00000000
Si       2.69759142      -0.01526373      -2.71761233       0.00000000
Si       0.01137042       2.72070693      -2.69930580       0.00000000
Si      -2.71381626       2.71456560      -0.00153836       0.00000000
Si      -2.71440270      -0.00008145       2.71405016       0.00000000
Si       0.00083079      -2.71523349       2.71422109       0.00000000
Si       0.00120546       2.71534752       2.71411853       0.00000000
