10
Lattice="16.28999089631971 0.0 0.0 0.0 16.28999089631971 0.0 0.0 0.0 34.185847837958455" Properties=species:S:1:pos:R:3:initial_magmoms:R:1 pbc="T T T"
Si       1.35355239      -1.35619137      -1.36175982       0.00000000
Si       1.36990755       1.36451556       1.34750432       0.00000000
Si      -1.36133901       1.36010097      -1.36117866       0.00000000
Si      -1.36547667      -1.38530160       1.34473526       0.00000000
Si      -0.05958882       2.64673404       2.66625832       0.00000000
Si       2.71202436      -2.71463076      -0.00283743       0.00000000
Si      -2.71722087      -2.71212210      -0.00526462       0.00000000
Si       2.71194291       0.00250866      -2.71893874       0.00000000
Si       2.71166598       2.71940373      -0.00789694       0.00000000
Si      -0.00330687      -2.71306692      -2.71887037       0.00000000
