10
Lattice="16.28999089631971 0.0 0.0 0.0 16.28999089631971 0.0 0.0 0.0 34.185847837958455" Properties=species:S:1:pos:R:3:initial_magmoms:R:1 pbc="T T T"
Si       1.42949637      -1.28221848      -1.31875400       0.00000000
Si      -0.96298335      -1.83063762       1.09367426       0.00000000
Si      -1.30531770       1.43645220      -1.31331845       0.00000000
Si       1.35130437       1.24820496       1.50093049       0.00000000
Si       0.05958882      -2.64673404      -2.66625832       0.00000000
Si      -2.65794156       0.07121988      -2.67083923       0.00000000
Si       2.78458002      -2.58030342       0.12279563       0.00000000
Si      -2.63490750       2.74698270       0.11595846       0.00000000
Si       0.87793326      -3.48697224       1.31205357       0.00000000
Si       2.77125480       0.07266969      -2.67415526       0.00000000
