10
Lattice="16.28999089631971 0.0 0.0 0.0 16.28999089631971 0.0 0.0 0.0 34.185847837958455" Properties=species:S:1:pos:R:3:initial_magmoms:R:1 pbc="T T T"
Si       1.34330598      -1.30474755       1.34526856       0.00000000
Si       1.58456088       0.86213196      -1.45998064       0.00000000
Si      -1.38759849       1.41043707       1.31221425       0.00000000
Si      -0.89340876      -1.63535310      -1.48264587       0.00000000
Si       0.06942798       1.33793028      -3.20240010       0.00000000
Si       2.55635712       2.64126060      -0.14055519       0.00000000
Si      -1.79729199      -0.11376936      -3.24920055       0.00000000
Si      -2.63192643      -2.66418063      -0.15998302       0.00000000
Si       2.69736336      -2.63454912      -0.02684616       0.00000000
Si      -0.02166570      -2.67416640       2.68691684       0.00000000
