10
Lattice="16.28999089631971 0.0 0.0 0.0 16.28999089631971 0.0 0.0 0.0 34.185847837958455" Properties=species:S:1:pos:R:3:initial_magmoms:R:1 pbc="T T T"
Si       1.34389242       1.33288038      -1.36906876       0.00000000
Si      -1.35915615       1.35249354       1.35417056       0.00000000
Si       1.35540945      -1.36124127       1.35482009       0.00000000
Si      -1.36417347      -1.35449721      -1.37736909       0.00000000
Si      -0.04600296       2.65794156      -2.75243064       0.00000000
Si       2.57978214      -0.12367368      -2.83013853       0.00000000
Si      -0.00127062       2.71251306       2.71203320       0.00000000
Si       2.71331127      -0.00236205       2.71175971       0.00000000
Si      -2.71650737      -0.00309510       2.71179390       0.00000000
Si      -0.00109143      -2.71798650       2.71203320       0.00000000
