10
Lattice="16.28999089631971 0.0 0.0 0.0 16.28999089631971 0.0 0.0 0.0 34.185847837958455" Properties=species:S:1:pos:R:3:initial_magmoms:R:1 pbc="T T T"
Si       0.73098117       1.90591371      -1.18881216       0.00000000
Si      -1.23588972       1.45655406       1.46106977       0.00000000
Si      -0.97179624      -1.77912864      -1.31942545       0.00000000
Si       1.49644827      -1.23973416       1.44206584       0.00000000
Si      -2.55635712      -2.64126060       0.14055519       0.00000000
Si       1.97408736      -1.49952708      -2.78917843       0.00000000
Si       2.63285496       2.76167628       0.06700088       0.00000000
Si      -2.62578510       2.78161524       0.07770789       0.00000000
Si      -2.57978214       0.12367368       2.83013853       0.00000000
Si       0.13214448      -2.59486668       2.82671994       0.00000000
