10
Lattice="16.28999089631971 0.0 0.0 0.0 16.28999089631971 0.0 0.0 0.0 34.185847837958455" Properties=species:S:1:pos:R:3:initial_magmoms:R:1 pbc="T T T"
Si       1.72791288      -1.10903949       1.11736506       0.00000000
Si      -1.35130437      -1.24820496      -1.50093049       0.00000000
Si       1.39724217       1.48092390      -1.38316018       0.00000000
Si      -0.82934019      -0.01143558       2.37506311       0.00000000
Si      -1.77359004       2.26444032       2.19196360       0.00000000
Si       0.07819200      -2.53042344      -2.81968449       0.00000000
Si       3.05619948       2.37733002       0.06539756       0.00000000
Si      -2.31428772      -3.07884258      -0.40725623       0.00000000
Si      -2.65662207       0.18824724      -2.81424894       0.00000000
Si      -2.71106325       2.86054029       0.09093441       0.00000000
