10
Lattice="16.28999089631971 0.0 0.0 0.0 16.28999089631971 0.0 0.0 0.0 34.185847837958455" Properties=species:S:1:pos:R:3:initial_magmoms:R:1 pbc="T T T"
Si      -0.73098117      -1.90591371       1.18881216       0.00000000
Si       0.35341155       0.04471605      -2.37549662       0.00000000
Si      -1.60350615       1.79794359      -0.14435602       0.00000000
Si       1.90187379       0.85576257       1.25581304       0.00000000
Si      -1.96687089      -0.44935965       2.64988192       0.00000000
Si       0.74521863       2.29267089       2.66345029       0.00000000
Si       2.32922565       1.34817669      -2.49111322       0.00000000
Si      -3.35676627       0.87570153       1.26652005       0.00000000
Si       2.74418082       2.57767000      -0.22038538       0.00000000
Si      -0.63698787       3.53441102       1.18063490       0.00000000
