10
Lattice="16.28999089631971 0.0 0.0 0.0 16.28999089631971 0.0 0.0 0.0 34.185847837958455" Properties=species:S:1:pos:R:3:initial_magmoms:R:1 pbc="T T T"
Si       0.96648570       1.55615112       1.46113814       0.00000000
Si       1.40040243      -1.30440546      -1.41444024       0.00000000
Si      -1.32688566       1.40854743      -1.41184212       0.00000000
Si      -1.38026799      -1.33468857       1.47094948       0.00000000
Si      -1.51620804       1.04184324       2.97362345       0.00000000
Si       1.19505069      -0.13372461       3.50264974       0.00000000
Si       2.70399339       2.56595193       0.08187515       0.00000000
Si      -2.54883114       2.74675464       0.19000505       0.00000000
Si      -2.65541661      -2.69645112      -0.00495695       0.00000000
Si       2.72803743      -2.71430496      -0.00314510       0.00000000
