10
Lattice="16.28999089631971 0.0 0.0 0.0 16.28999089631971 0.0 0.0 0.0 34.185847837958455" Properties=species:S:1:pos:R:3:initial_magmoms:R:1 pbc="T T T"
Si       1.13349078      -0.46169118      -2.01047083       0.00000000
Si      -2.34214362      -0.15749172       0.26333373       0.00000000
Si       0.23982138       2.35762305      -0.08170422       0.00000000
Si       0.93745692      -1.45034757       1.65169016       0.00000000
Si      -0.98504001      -2.68881111       2.10058478       0.00000000
Si      -2.45340432      -0.92769921       2.57802460       0.00000000
Si      -0.06157620       0.80744643      -3.61655705       0.00000000
Si      -0.36028593       2.87910179      -2.35991877       0.00000000
Si       2.43752157       2.75883272       0.67541017       0.00000000
Si       3.42743229       0.23825754      -1.57576335       0.00000000
