10
Lattice="16.28999089631971 0.0 0.0 0.0 16.28999089631971 0.0 0.0 0.0 34.185847837958455" Properties=species:S:1:pos:R:3:initial_magmoms:R:1 pbc="T T T"
Si      -1.35741312       1.35491260       1.35666613       0.00000000
Si       1.35751086      -1.36026063       1.35581148       0.00000000
Si      -1.37148768      -1.35346998      -1.35379110       0.00000000
Si       1.35814617       1.36173812      -1.36030692       0.00000000
Si       2.46754404      -0.10741626      -2.83624413       0.00000000
Si      -0.07183890       2.61846274      -2.72633998       0.00000000
Si      -2.71083519      -2.71425513      -0.00157255       0.00000000
Si       0.00148239       2.71372667       2.71363993       0.00000000
Si      -2.71349046      -0.00180330       2.71398179       0.00000000
Si      -2.71292031       2.71535567      -0.00222208       0.00000000
