10
Lattice="16.28999089631971 0.0 0.0 0.0 16.28999089631971 0.0 0.0 0.0 34.185847837958455" Properties=species:S:1:pos:R:3:initial_magmoms:R:1 pbc="T T T"
Si      -1.30429143       1.39010715      -1.48664080       0.00000000
Si       1.52360370       1.16986635       1.48940985       0.00000000
Si       1.39546656      -1.30781821      -1.50315257       0.00000000
Si      -1.27695681      -1.62149357       1.35201685       0.00000000
Si       2.10098646      -0.90903087       2.60079239       0.00000000
Si       0.46314099      -2.71369313       2.56281189       0.00000000
Si      -1.27873242       1.02643290       3.45858416       0.00000000
Si       2.61553869      -2.80521035      -0.16474169       0.00000000
Si      -2.64238461       2.81535183      -0.07770448       0.00000000
Si       2.81810484       2.65052961      -0.05264624       0.00000000
