10
Lattice="16.28999089631971 0.0 0.0 0.0 16.28999089631971 0.0 0.0 0.0 34.185847837958455" Properties=species:S:1:pos:R:3:initial_magmoms:R:1 pbc="T T T"
Si       0.75828321      -1.00212985       1.97878054       0.00000000
Si       0.31762894       2.21833962      -0.83625468       0.00000000
Si      -0.08840909      -1.90060154      -1.51925411       0.00000000
Si      -2.34587144       1.26677556       0.55791335       0.00000000
Si       2.67443681       0.54084429       1.56444783       0.00000000
Si      -1.44268868      -1.50547130       2.93588225       0.00000000
Si       0.72295183      -1.06214873      -3.57119240       0.00000000
Si      -1.05352058       2.36657862      -2.78156725       0.00000000
Si       1.83475247      -3.24735353      -0.86835521       0.00000000
Si       0.13761792       3.81575331       0.82538357       0.00000000
