10
Lattice="16.28999089631971 0.0 0.0 0.0 16.28999089631971 0.0 0.0 0.0 34.185847837958455" Properties=species:S:1:pos:R:3:initial_magmoms:R:1 pbc="T T T"
Si      -1.57778424       1.82562193       0.08272980       0.00000000
Si      -0.84230703      -1.72190743       1.47619842       0.00000000
Si       1.84006953       0.96105461       1.40138265       0.00000000
Si      -0.41495517      -1.22949331      -2.27072784       0.00000000
Si      -1.99896219      -0.28499911       2.88383568       0.00000000
Si      -1.80289575       2.29014757      -2.37889192       0.00000000
Si      -2.74418082      -2.57767000       0.22038538       0.00000000
Si      -3.38116869       0.95674102       1.40102028       0.00000000
Si       0.73067166       2.43020899       2.87731985       0.00000000
Si       3.23887554       2.19498139      -0.10252341       0.00000000
