10
Lattice="16.28999089631971 0.0 0.0 0.0 16.28999089631971 0.0 0.0 0.0 34.185847837958455" Properties=species:S:1:pos:R:3:initial_magmoms:R:1 pbc="T T T"
Si      -1.35106002      -1.35581670      -1.38295506       0.00000000
Si       1.36348929       1.36057338      -1.37888694       0.00000000
Si      -1.33809318       1.42524468       1.40893632       0.00000000
Si       1.30429143      -1.39010715       1.48664080       0.00000000
Si       0.21032019       2.52926685       2.85014410       0.00000000
Si       2.69975799      -2.69792536      -0.01651177       0.00000000
Si      -2.69232975      -2.71881892      -0.00393137       0.00000000
Si      -2.69317683       2.72332962      -0.03261332       0.00000000
Si       2.73564486       2.71388142      -0.00013674       0.00000000
Si      -2.70953199       0.00262269      -2.74187746       0.00000000
