10
Lattice="16.28999089631971 0.0 0.0 0.0 16.28999089631971 0.0 0.0 0.0 34.185847837958455" Properties=species:S:1:pos:R:3:initial_magmoms:R:1 pbc="T T T"
Si      -2.20402071       0.59142474      -0.34049123       0.00000000
Si       0.31659615      -2.05871391      -1.00393635       0.00000000
Si       0.06553467       0.18599922       2.38552398       0.00000000
Si       1.52924004       1.31149161      -1.29519994       0.00000000
Si       3.16558683       1.05524991       0.34749934       0.00000000
Si      -2.01891744       2.45884518       1.06796648       0.00000000
Si       2.06469234       1.45963287       2.39273720       0.00000000
Si      -3.27489273      -1.48905261       0.01319574       0.00000000
Si       0.39871404      -1.53626103      -3.27811697       0.00000000
Si      -2.27884068       1.33276635      -2.51819933       0.00000000
