10
Lattice="16.28999089631971 0.0 0.0 0.0 16.28999089631971 0.0 0.0 0.0 34.185847837958455" Properties=species:S:1:pos:R:3:initial_magmoms:R:1 pbc="T T T"
Si       0.64979181       1.34785089       1.78429714       0.00000000
Si       1.83839166      -0.78457527      -1.20135974       0.00000000
Si      -1.04027940       1.23623181      -1.69250809       0.00000000
Si      -1.43228196      -1.78707816       0.64987333       0.00000000
Si       1.80757098      -0.24430113       3.11286249       0.00000000
Si      -3.13268103       0.07597656      -1.88623939       0.00000000
Si       1.04511753      -1.28246283      -3.33206227       0.00000000
Si      -0.79579908      -3.61991493      -0.70532281       0.00000000
Si      -1.24551711       2.54801664       2.53419832       0.00000000
Si       3.20124564       1.07528661      -1.80791957       0.00000000
