10
Lattice="16.28999089631971 0.0 0.0 0.0 16.28999089631971 0.0 0.0 0.0 34.185847837958455" Properties=species:S:1:pos:R:3:initial_magmoms:R:1 pbc="T T T"
Si       2.25438939       0.14281443      -0.54047856       0.00000000
Si      -0.93582792       1.28301669      -1.69855898       0.00000000
Si      -1.21125924      -1.99415664       0.20846542       0.00000000
Si       2.79220374      -0.37354599       1.64348012       0.00000000
Si       0.93535551      -1.21994181       2.88648508       0.00000000
Si      -2.94588360      -0.27960156       1.46975298       0.00000000
Si       0.10603161      -3.11784084       1.77544577       0.00000000
Si      -0.88969464       3.45015684      -0.77513035       0.00000000
Si      -3.02119227       0.29012490      -2.04971621       0.00000000
Si      -1.97408736       1.49952708       2.78917843       0.00000000
