10
Lattice="16.28999089631971 0.0 0.0 0.0 16.28999089631971 0.0 0.0 0.0 34.185847837958455" Properties=species:S:1:pos:R:3:initial_magmoms:R:1 pbc="T T T"
Si      -1.20428712       1.40885694       1.47902077       0.00000000
Si       1.50309459      -1.30538286       1.45473171       0.00000000
Si      -1.89297945      -0.94135023      -1.45694836       0.00000000
Si       1.05780744       1.94878899      -1.33986176       0.00000000
Si      -2.45474010       2.77573455       0.00262889       0.00000000
Si      -2.57365384      -2.73942577       0.13195403       0.00000000
Si      -2.56213355       0.06071283       2.84959712       0.00000000
Si       0.15379389      -2.65912747       2.84822969       0.00000000
Si      -0.88707195      -0.93146220      -3.72203553       0.00000000
Si      -3.65174233       0.87348609      -1.23162931       0.00000000
