10
Lattice="16.28999089631971 0.0 0.0 0.0 16.28999089631971 0.0 0.0 0.0 34.185847837958455" Properties=species:S:1:pos:R:3:initial_magmoms:R:1 pbc="T T T"
Si       1.35712153      -1.35757602       1.35704217       0.00000000
Si      -1.35720035       1.35729909       1.35748659       0.00000000
Si       1.35770797       1.35707103      -1.35854635       0.00000000
Si      -1.35825227      -1.35977517      -1.35670032       0.00000000
Si       0.00026879      -2.71124244      -2.71459714       0.00000000
Si      -0.00068418       2.71339272       2.71346900       0.00000000
Si       2.71466497      -2.71427238       0.00010256       0.00000000
Si       2.71432288       0.00043983       2.71490481       0.00000000
Si      -2.71434310       2.71521720      -0.00013674       0.00000000
Si      -0.00012055      -2.71583622       2.71384505       0.00000000
