10
Lattice="16.28999089631971 0.0 0.0 0.0 16.28999089631971 0.0 0.0 0.0 34.185847837958455" Properties=species:S:1:pos:R:3:initial_magmoms:R:1 pbc="T T T"
Si       1.15665516      -1.43690832      -1.40763726       0.00000000
Si      -1.33934751      -1.36078515       1.35221855       0.00000000
Si       1.37148768       1.35346998       1.35379110       0.00000000
Si      -1.38220650       1.24174013      -1.48281540       0.00000000
Si       1.99896219       0.28499911      -2.88383568       0.00000000
Si       0.42117795       2.11062104      -2.80110588       0.00000000
Si      -0.74521863      -2.29267089      -2.66345029       0.00000000
Si      -2.34872478      -0.49472730      -2.80780631       0.00000000
Si      -2.70143586      -0.00638568       2.71014956       0.00000000
Si      -2.70664866       2.70484766      -0.04196315       0.00000000
