10
Lattice="16.28999089631971 0.0 0.0 0.0 16.28999089631971 0.0 0.0 0.0 34.185847837958455" Properties=species:S:1:pos:R:3:initial_magmoms:R:1 pbc="T T T"
Si      -1.35593073      -1.33393923      -1.37936555       0.00000000
Si      -1.40361156       1.17305919       1.49156356       0.00000000
Si       1.35868374       1.38261375      -1.37851090       0.00000000
Si       1.28879964      -1.52985906       1.40794493       0.00000000
Si       0.02189376       2.43651552       2.84128996       0.00000000
Si      -2.70720252      -2.69729820      -0.00475184       0.00000000
Si      -2.69777061       2.72929732      -0.00129906       0.00000000
Si      -0.00050499      -2.69405649      -2.73845887       0.00000000
Si       2.72927547      -2.70350469      -0.01599899       0.00000000
Si       2.69431713       2.75019087      -0.01387946       0.00000000
