10
Lattice="16.28999089631971 0.0 0.0 0.0 16.28999089631971 0.0 0.0 0.0 34.185847837958455" Properties=species:S:1:pos:R:3:initial_magmoms:R:1 pbc="T T T"
Si       1.36723599      -0.89187750      -1.68536324       0.00000000
Si       0.20137698       2.38116536       0.28278549       0.00000000
Si       0.77996520      -0.96847308       2.08998716       0.00000000
Si      -2.29394151      -0.69994872      -0.43470748       0.00000000
Si      -0.98991072       2.52057518       2.25117352       0.00000000
Si       0.00923643       0.72800826       3.63125697       0.00000000
Si      -0.06724512      -0.98235216      -3.57074799       0.00000000
Si      -3.42743229      -0.23825754       1.57576335       0.00000000
Si       2.96210844       0.80687255      -2.22809806       0.00000000
Si      -0.59466645      -2.88877086       2.47755233       0.00000000
