10
Lattice="16.28999089631971 0.0 0.0 0.0 16.28999089631971 0.0 0.0 0.0 34.185847837958455" Properties=species:S:1:pos:R:3:initial_magmoms:R:1 pbc="T T T"
Si       1.35736425       1.35654161      -1.35639264       0.00000000
Si      -1.35687555       1.35750271       1.35734985       0.00000000
Si       1.35770634      -1.35748912       1.35728148       0.00000000
Si      -1.35840681      -1.35915291      -1.35782845       0.00000000
Si      -0.00029322       2.71278185       2.71432365       0.00000000
Si       2.71344159      -0.00008634       2.71487062       0.00000000
Si      -2.71443528       2.71483439       0.00000000       0.00000000
Si      -2.71515204      -2.71427142       0.00003419       0.00000000
Si      -2.71593396      -0.00024924       2.71357156       0.00000000
Si      -2.71591767       0.00110772      -2.71363993       0.00000000
