10
Lattice="16.28999089631971 0.0 0.0 0.0 16.28999089631971 0.0 0.0 0.0 34.185847837958455" Properties=species:S:1:pos:R:3:initial_magmoms:R:1 pbc="T T T"
Si      -0.05219316       0.14361264       2.36525176       0.00000000
Si      -0.57738276       2.07889722      -1.11138253       0.00000000
Si       1.93319946      -0.74048476      -1.27691050       0.00000000
Si      -1.63784547      -1.80466226      -0.03798050       0.00000000
Si       0.51455223      -1.89617948      -2.76553408       0.00000000
Si      -2.10098646       0.90903087      -2.60079239       0.00000000
Si       2.77531101       1.95600546       0.78545448       0.00000000
Si       1.20586725       2.17662093       2.50596079       0.00000000
Si      -2.35206423       0.66617955       2.58441736       0.00000000
Si      -3.37794327      -0.71246270      -1.24877553       0.00000000
