10
Lattice="16.28999089631971 0.0 0.0 0.0 16.28999089631971 0.0 0.0 0.0 34.185847837958455" Properties=species:S:1:pos:R:3:initial_magmoms:R:1 pbc="T T T"
Si       1.49543829      -1.37273875      -1.09972515       0.00000000
Si       0.37745559       0.24016347       2.27048854       0.00000000
Si      -2.19198240      -0.65120904      -0.58844133       0.00000000
Si       0.51886908       2.33287461      -0.36845527       0.00000000
Si       0.05530455       2.63329479       2.08769671       0.00000000
Si       2.01508929       1.80050112      -2.18792967       0.00000000
Si      -1.47302325       2.96826606      -1.53402241       0.00000000
Si      -3.38327010      -0.51179922       1.37994671       0.00000000
Si       3.48552310      -0.07258824      -1.22734099       0.00000000
Si      -3.01829265       1.15098624      -1.90179396       0.00000000
