10
Lattice="16.28999089631971 0.0 0.0 0.0 16.28999089631971 0.0 0.0 0.0 34.185847837958455" Properties=species:S:1:pos:R:3:initial_magmoms:R:1 pbc="T T T"
Si      -1.49543829       1.37273875       1.09972515       0.00000000
Si       0.63364842      -1.75545342       1.37649393       0.00000000
Si      -0.92668923      -0.85276309      -1.99959973       0.00000000
Si       1.99008481       1.30015051      -0.12761584       0.00000000
Si       0.51965100       3.17323987      -1.08820452       0.00000000
Si       2.46212177      -2.44952145      -0.02246011       0.00000000
Si       3.34861217      -0.46085062       0.93129139       0.00000000
Si       0.95154777      -1.20305952      -3.42525294       0.00000000
Si      -3.68742069       0.72152971       0.51128383       0.00000000
Si      -2.52156168      -2.55151314      -1.45686491       0.00000000
