10
Lattice="16.28999089631971 0.0 0.0 0.0 16.28999089631971 0.0 0.0 0.0 34.185847837958455" Properties=species:S:1:pos:R:3:initial_magmoms:R:1 pbc="T T T"
Si       1.35675871       1.35492075      -1.35642683       0.00000000
Si       1.35738848      -1.35736425       1.35693962       0.00000000
Si      -1.35767376       1.35700587       1.35748659       0.00000000
Si      -1.35806472      -1.35858600      -1.35618753       0.00000000
Si      -0.00131949       2.71336014       2.71483644       0.00000000
Si       0.00395847      -2.71456560      -2.71422109       0.00000000
Si      -2.71469592       2.71422351       0.00030767       0.00000000
Si       2.71489044      -0.00114030       2.71411853       0.00000000
Si       2.71465912      -2.71487348      -0.00023930       0.00000000
Si       2.71527977       0.00345348      -2.71432365       0.00000000
