10
Lattice="16.28999089631971 0.0 0.0 0.0 16.28999089631971 0.0 0.0 0.0 34.185847837958455" Properties=species:S:1:pos:R:3:initial_magmoms:R:1 pbc="T T T"
Si      -1.35658233      -1.35527913      -1.35697380       0.00000000
Si       1.36039419      -1.35340578       1.35570893       0.00000000
Si       1.35804843       1.35935163      -1.35704217       0.00000000
Si      -1.35702216       1.35913986       1.36305889       0.00000000
Si      -0.02075346      -2.69935888       2.72543406       0.00000000
Si       2.71373481      -2.71286818       0.00054697       0.00000000
Si       0.00029322      -2.71278185      -2.71432365       0.00000000
Si      -2.71414206       0.00205254      -2.71432365       0.00000000
Si      -2.71564074      -2.71303108      -0.00075209       0.00000000
Si       2.71440270       2.71570590       0.00030767       0.00000000
