10
Lattice="16.28999089631971 0.0 0.0 0.0 16.28999089631971 0.0 0.0 0.0 34.185847837958455" Properties=species:S:1:pos:R:3:initial_magmoms:R:1 pbc="T T T"
Si      -1.23341853       1.47256713      -1.29574691       0.00000000
Si       1.47245310      -1.27031049      -1.28012397       0.00000000
Si       1.81535760       0.93108753       1.13507334       0.00000000
Si      -1.91145557      -0.86677461       1.67343237       0.00000000
Si       0.11678301       1.51863525       2.74286885       0.00000000
Si      -2.59279844       0.11507256      -2.63067083       0.00000000
Si       0.12070890      -2.59713099      -2.63012386       0.00000000
Si      -2.59023837       2.72712519       0.08765256       0.00000000
Si      -3.42879155       0.92940966       1.31434403       0.00000000
Si       2.79186165      -2.64938931       0.13435046       0.00000000
