10
Lattice="16.28999089631971 0.0 0.0 0.0 16.28999089631971 0.0 0.0 0.0 34.185847837958455" Properties=species:S:1:pos:R:3:initial_magmoms:R:1 pbc="T T T"
Si      -0.22771791       1.10001483       2.05179270       0.00000000
Si      -1.75425381      -0.18300186      -1.68645719       0.00000000
Si       1.69261245      -1.87667316       0.06597872       0.00000000
Si       1.55693304       2.13477192      -0.19209039       0.00000000
Si       2.39985909       0.93112011      -2.04489600       0.00000000
Si      -1.15650855      -0.75416184       3.22279880       0.00000000
Si      -2.06713584       2.08108008      -1.95960226       0.00000000
Si       3.44510435      -1.01138094      -1.24409207       0.00000000
Si      -0.65335932      -0.58738482      -3.73169505       0.00000000
Si      -2.96922717      -1.76357169       1.95132929       0.00000000
