10
Lattice="16.28999089631971 0.0 0.0 0.0 16.28999089631971 0.0 0.0 0.0 34.185847837958455" Properties=species:S:1:pos:R:3:initial_magmoms:R:1 pbc="T T T"
Si      -1.35575154       1.35394335      -1.35895658       0.00000000
Si      -1.35576783      -1.35930276       1.35871728       0.00000000
Si       1.35959598       1.35638685       1.35854635       0.00000000
Si       1.35948195      -1.35822762      -1.36193075       0.00000000
Si      -2.68076385      -0.03873762      -2.69971261       0.00000000
Si      -2.71450044       2.71301805       0.00064953       0.00000000
Si       2.71369625       2.71541268       0.00013674       0.00000000
Si       0.00117288       2.71370223       2.71569108       0.00000000
Si      -2.71391400      -0.00092853       2.71565690       0.00000000
Si      -2.71529865      -2.71650411       0.00095720       0.00000000
