10
Lattice="16.28999089631971 0.0 0.0 0.0 16.28999089631971 0.0 0.0 0.0 34.185847837958455" Properties=species:S:1:pos:R:3:initial_magmoms:R:1 pbc="T T T"
Si      -2.07674694       0.52712811       0.90995941       0.00000000
Si       1.20223458      -1.74060279       1.01395281       0.00000000
Si       1.01659374       2.11988286       0.33755125       0.00000000
Si      -1.28347281       1.02501567       3.04066194       0.00000000
Si      -0.15161103      -3.67461675       0.76743853       0.00000000
Si       3.22642998       1.65452643       1.02967831       0.00000000
Si       0.07938117       2.88487755       2.43410210       0.00000000
Si       1.97640054      -0.99254970       3.14441604       0.00000000
Si       3.17255895      -2.28591054      -0.13062420       0.00000000
Si      -1.43597979       0.38358063      -3.68434762       0.00000000
