10
Lattice="16.28999089631971 0.0 0.0 0.0 16.28999089631971 0.0 0.0 0.0 34.185847837958455" Properties=species:S:1:pos:R:3:initial_magmoms:R:1 pbc="T T T"
Si       2.20983624      -0.46535643       0.69212706       0.00000000
Si      -1.01659374      -2.11988286      -0.33755125       0.00000000
Si      -0.93721257       0.76499469       2.09655085       0.00000000
Si      -0.03336192       1.58664600      -2.31622923       0.00000000
Si      -3.09334068      -1.59275475       0.57240816       0.00000000
Si       1.83910842      -0.91728990       2.96883743       0.00000000
Si      -2.30006655      -1.09486719       2.70311069       0.00000000
Si      -1.52676396       3.03445233       1.52585199       0.00000000
Si       0.18564084      -3.86048565       0.67640156       0.00000000
Si       3.81182972       1.04469399      -0.14094833       0.00000000
