10
Lattice="16.28999089631971 0.0 0.0 0.0 16.28999089631971 0.0 0.0 0.0 34.185847837958455" Properties=species:S:1:pos:R:3:initial_magmoms:R:1 pbc="T T T"
Si      -1.35093405       1.35907513      -1.35762333       0.00000000
Si      -1.35526719      -1.35689859       1.35683706       0.00000000
Si       1.35976660       1.35876725       1.35635846       0.00000000
Si       1.35916224      -1.35479718      -1.36227261       0.00000000
Si       0.00529270       2.69172745      -2.71469628       0.00000000
Si      -2.71261515       0.00102401       2.71408435       0.00000000
Si      -2.71295724       2.71505473       0.00041023       0.00000000
Si       0.00266736      -2.71398591       2.71415272       0.00000000
Si      -2.71261515      -2.71691811      -0.00167511       0.00000000
Si       0.00249596       2.71627648       2.71353737       0.00000000
