10
Lattice="16.28999089631971 0.0 0.0 0.0 16.28999089631971 0.0 0.0 0.0 34.185847837958455" Properties=species:S:1:pos:R:3:initial_magmoms:R:1 pbc="T T T"
Si       1.34126973       1.36155078       1.36015309       0.00000000
Si      -1.35839052       1.35521397      -1.35663194       0.00000000
Si       1.35488817      -1.35832536      -1.35717892       0.00000000
Si      -1.34462547      -1.36832742       1.36675096       0.00000000
Si      -0.15951168       2.58797601       2.70728136       0.00000000
Si       2.63207304      -0.08922033       2.67165969       0.00000000
Si       2.71445173      -0.00055386      -2.71353737       0.00000000
Si      -0.00083079       2.71445606      -2.71360575       0.00000000
Si       2.71787247       2.71117140       0.00458091       0.00000000
Si      -0.00086337      -2.71568961      -2.71381086       0.00000000
