10
Lattice="16.28999089631971 0.0 0.0 0.0 16.28999089631971 0.0 0.0 0.0 34.185847837958455" Properties=species:S:1:pos:R:3:initial_magmoms:R:1 pbc="T T T"
Si       0.60698073       2.16514367      -0.21441376       0.00000000
Si      -0.38657799      -0.75313557      -2.15442752       0.00000000
Si      -1.87823700       0.35029643       1.42565321       0.00000000
Si       1.84623597      -1.12215294       1.04653194       0.00000000
Si      -1.15787691       1.21826461      -3.31958442       0.00000000
Si      -0.95154777       1.20305952       3.42525294       0.00000000
Si       2.24426420       2.79079370       1.22580263       0.00000000
Si      -3.14326953       2.10236201       0.32257784       0.00000000
Si       1.86548423      -3.33821196       0.30158772       0.00000000
Si      -1.97970741      -2.79625995      -1.87369318       0.00000000
