10
Lattice="16.28999089631971 0.0 0.0 0.0 16.28999089631971 0.0 0.0 0.0 34.185847837958455" Properties=species:S:1:pos:R:3:initial_magmoms:R:1 pbc="T T T"
Si      -1.53275868      -1.41400458       1.03576340       0.00000000
Si       0.78829006       1.37093382       1.73288160       0.00000000
Si       1.57726852      -1.47100329      -1.01309817       0.00000000
Si      -1.15002513       0.82733652      -1.95368811       0.00000000
Si       3.21329114       0.32905800      -1.07323111       0.00000000
Si      -2.68356573      -2.38786965      -0.72877431       0.00000000
Si      -1.41907077       2.55717162       2.22030369       0.00000000
Si       3.01730615       0.52316964       2.22167112       0.00000000
Si      -1.40235723       3.15669249      -1.63880209       0.00000000
Si      -3.16746018      -0.54975492      -2.14126596       0.00000000
