10
Lattice="16.28999089631971 0.0 0.0 0.0 16.28999089631971 0.0 0.0 0.0 34.185847837958455" Properties=species:S:1:pos:R:3:initial_magmoms:R:1 pbc="T T T"
Si       0.90838090      -1.62520443      -1.40879958       0.00000000
Si       1.21761397       2.15922321       0.04177513       0.00000000
Si       0.21655274      -1.23517296       2.25028469       0.00000000
Si      -1.90709215       1.29308391      -1.24364765       0.00000000
Si       1.89623908       0.19751625      -2.62082530       0.00000000
Si       0.72566737       2.13887700       2.40877037       0.00000000
Si      -0.87632611       0.62882658       3.24184576       0.00000000
Si       3.17138770       1.55927880      -1.14491887       0.00000000
Si      -0.83743274      -2.58406641      -2.69053029       0.00000000
Si      -0.93019714      -3.31161039       2.08154325       0.00000000
