10
Lattice="16.28999089631971 0.0 0.0 0.0 16.28999089631971 0.0 0.0 0.0 34.185847837958455" Properties=species:S:1:pos:R:3:initial_magmoms:R:1 pbc="T T T"
Si       1.42768818       1.29697722       1.37184465       0.00000000
Si       1.30013748      -0.14682177      -1.97840449       0.00000000
Si      -2.08305606       1.02887640      -0.52574445       0.00000000
Si      -0.47478834      -2.31418998       0.46598755       0.00000000
Si      -1.59110946       1.04922261      -2.89273969       0.00000000
Si       3.12396588      -0.25013295       1.63343491       0.00000000
Si      -2.59217069      -2.34517356      -0.68423013       0.00000000
Si      -3.68504954      -0.48117402       0.30733094       0.00000000
Si       2.23181145       2.99680614      -0.09537857       0.00000000
Si       2.24438733      -2.42269767      -1.79530499       0.00000000
