10
Lattice="16.28999089631971 0.0 0.0 0.0 16.28999089631971 0.0 0.0 0.0 34.185847837958455" Properties=species:S:1:pos:R:3:initial_magmoms:R:1 pbc="T T T"
Si      -1.09287885       1.86399954       0.99156107       0.00000000
Si      -1.14674988      -2.07643743      -0.16874144       0.00000000
Si       2.11738235       0.03098358       1.15021768       0.00000000
Si      -0.21655274       1.23517296      -2.25028469       0.00000000
Si       0.50911463       3.37404996       0.15848568       0.00000000
Si       2.59217069       2.34517356       0.68423013       0.00000000
Si      -3.11707425      -1.53112968       0.97583557       0.00000000
Si       0.69182815      -0.39003147      -3.65908427       0.00000000
Si      -0.35639751      -3.36717558       1.63442630       0.00000000
Si       1.65303589      -2.55738339      -2.28559869       0.00000000
