10
Lattice="16.28999089631971 0.0 0.0 0.0 16.28999089631971 0.0 0.0 0.0 34.185847837958455" Properties=species:S:1:pos:R:3:initial_magmoms:R:1 pbc="T T T"
Si      -2.14624075      -0.93933027       0.34749934       0.00000000
Si       0.93039358      -1.37156913      -1.72594186       0.00000000
Si      -0.58303050       2.17417743      -0.97231443       0.00000000
Si       0.70278970       0.10086768       2.52281442       0.00000000
Si      -1.10099549      -2.88183132       1.14830327       0.00000000
Si      -2.98916680       0.26432154       2.20030495       0.00000000
Si       1.25285413      -3.55666086      -0.72730432       0.00000000
Si      -1.47134636       1.60472790      -3.21907797       0.00000000
Si       2.74312849      -0.19619676      -2.75442367       0.00000000
Si       2.56950967       1.55256732       2.56961487       0.00000000
