10
Lattice="16.28999089631971 0.0 0.0 0.0 16.28999089631971 0.0 0.0 0.0 34.185847837958455" Properties=species:S:1:pos:R:3:initial_magmoms:R:1 pbc="T T T"
Si      -1.57726852       1.47100329       1.01309817       0.00000000
Si       1.63602262       1.80006129      -0.06013294       0.00000000
Si       0.58303050      -2.17417743       0.97231443       0.00000000
Si      -0.88831585      -0.56944953      -2.24676355       0.00000000
Si      -2.72729365       2.29833981      -0.94058994       0.00000000
Si       2.31572287       1.77269409      -2.27510363       0.00000000
Si      -1.59438931       1.65747492      -2.89913245       0.00000000
Si      -3.11002720       0.05699871       2.04886156       0.00000000
Si      -1.56321025      -3.11350770       1.31981377       0.00000000
Si       1.51342408      -3.54574656      -0.75362744       0.00000000
