10
Lattice="16.28999089631971 0.0 0.0 0.0 16.28999089631971 0.0 0.0 0.0 34.185847837958455" Properties=species:S:1:pos:R:3:initial_magmoms:R:1 pbc="T T T"
Si      -1.28573712       1.41083726       1.39575425       0.00000000
Si       1.38989538      -1.32506118       1.38336187       0.00000000
Si      -1.84766067      -0.88503570      -1.18641197       0.00000000
Si       1.75326012       0.92224206      -1.41087607       0.00000000
Si       3.35676627      -0.87570153      -1.26652005       0.00000000
Si      -2.68141219       2.68777411       0.03218941       0.00000000
Si       2.71977840       2.65870949      -0.08588515       0.00000000
Si       2.62578510      -2.78161524      -0.07770789       0.00000000
Si       0.04600296      -2.65794156       2.75243064       0.00000000
Si      -2.67111691       0.05602131       2.74528579       0.00000000
