10
Lattice="16.28999089631971 0.0 0.0 0.0 16.28999089631971 0.0 0.0 0.0 34.185847837958455" Properties=species:S:1:pos:R:3:initial_magmoms:R:1 pbc="T T T"
Si      -1.35163017      -1.35039213      -1.37799811       0.00000000
Si       1.36238157       1.36435266      -1.37714346       0.00000000
Si       1.32688566      -1.40854743       1.41184212       0.00000000
Si      -1.22194548       1.33820721       1.60184717       0.00000000
Si       0.79320897       2.14221712       2.87349305       0.00000000
Si       2.29337136       0.14760369       2.87298026       0.00000000
Si      -2.68784511       2.70959130       0.00926437       0.00000000
Si      -2.70711292      -2.71555929      -0.01941757       0.00000000
Si       2.72728809      -2.71295289      -0.00259813       0.00000000
Si       0.00478926      -2.70884781      -2.73630516       0.00000000
