10
Lattice="16.28999089631971 0.0 0.0 0.0 16.28999089631971 0.0 0.0 0.0 34.185847837958455" Properties=species:S:1:pos:R:3:initial_magmoms:R:1 pbc="T T T"
Si       0.37600578       2.24718011       0.49849831       0.00000000
Si       0.14162526      -1.19806434      -2.01819684       0.00000000
Si       2.14671249      -1.02706821       0.46318431       0.00000000
Si      -2.18740328      -0.77893893       0.77776266       0.00000000
Si       1.82232972       2.61230417      -1.53590263       0.00000000
Si       1.34258922      -2.72689713       1.93040753       0.00000000
Si      -2.16815502      -2.99499795       0.03281843       0.00000000
Si      -1.78937505       3.13400771       0.95703335       0.00000000
Si       1.12415661       1.31085697      -3.53016936       0.00000000
Si       2.85288399      -2.37363219      -1.48917055       0.00000000
