10
Lattice="10.86 0.0 0.0 0.0 10.86 0.0 0.0 0.0 10.86" Properties=species:S:1:pos:R:3:initial_magmoms:R:1 pbc="T T T"
Si       1.28180580       1.12636662      -1.41881556       0.00000000
Si      -1.43319420       1.12636662       1.29618444       0.00000000
Si       1.28180580      -1.58863338       1.29618444       0.00000000
Si       2.63930580       2.48386662      -0.06131556       0.00000000
Si      -0.07569420       2.48386662       2.65368444       0.00000000
Si      -0.07569420       2.48386662      -2.77631556       0.00000000
Si      -2.79069420       2.48386662      -0.06131556       0.00000000
Si       2.63930580      -0.23113338       2.65368444       0.00000000
Si       2.63930580      -0.23113338      -2.77631556       0.00000000
Si      -2.79069420      -0.23113338       2.65368444       0.00000000
