10
Lattice="16.28999089631971 0.0 0.0 0.0 16.28999089631971 0.0 0.0 0.0 34.64500226677339" Properties=species:S:1:pos:R:3:initial_magmoms:R:1 pbc="T T T"
Si       0.21056454       2.19661595      -0.71275203       0.00000000
Si       2.14042455      -0.77546916       0.50599054       0.00000000
Si      -1.29215538      -1.50801417      -1.29499626       0.00000000
Si      -1.13754699       0.31454361       2.09210892       0.00000000
Si       0.20274534      -1.21814991       3.17784925       0.00000000
Si      -3.14601257      -0.61043517       1.36875551       0.00000000
Si      -2.27198422      -2.63555910       0.54077414       0.00000000
Si       2.23446672      -0.12761586       2.78798883       0.00000000
Si      -2.00511818       2.99901248      -0.24196083       0.00000000
Si      -2.99450469      -0.09102852      -2.18090411       0.00000000
