10
Lattice="16.28999089631971 0.0 0.0 0.0 16.28999089631971 0.0 0.0 0.0 34.64500226677339" Properties=species:S:1:pos:R:3:initial_magmoms:R:1 pbc="T T T"
Si       0.93314007       1.80379170      -1.24313267       0.00000000
Si      -1.77741819      -0.97164963      -1.26374645       0.00000000
Si       1.85746725      -1.67347170       0.15590260       0.00000000
Si      -0.76950702      -0.52411446       2.71336345       0.00000000
Si       1.58299704      -0.59761494       2.42397358       0.00000000
Si       2.27771667       0.38817441      -2.65564484       0.00000000
Si      -0.45063027      -2.35605202      -2.65529839       0.00000000
Si      -1.52089956      -2.78217724       2.12838226       0.00000000
Si      -3.33987354      -1.95033654       0.17565026       0.00000000
Si       0.97321347      -3.63159323      -1.20277122       0.00000000
