10
Lattice="16.28999089631971 0.0 0.0 0.0 16.28999089631971 0.0 0.0 0.0 34.64500226677339" Properties=species:S:1:pos:R:3:initial_magmoms:R:1 pbc="T T T"
Si       2.35250406      -0.07350048      -0.28938987       0.00000000
Si      -0.51403095      -0.45905220       2.32128574       0.00000000
Si      -0.75139254      -2.25806278      -0.58498119       0.00000000
Si      -1.48199904       1.86851187       0.62884179       0.00000000
Si       0.76950702       0.52411446      -2.71336345       0.00000000
Si      -0.89682966       1.76399523       2.98161985       0.00000000
Si       3.13145928       2.07704016       0.32043181       0.00000000
Si       2.62697427      -1.14935724      -2.55746085       0.00000000
Si       1.36840887      -3.57957179      -0.32157509       0.00000000
Si      -2.68820838      -1.36262592       2.41028880       0.00000000
