10
Lattice="16.28999089631971 0.0 0.0 0.0 16.28999089631971 0.0 0.0 0.0 34.64500226677339" Properties=species:S:1:pos:R:3:initial_magmoms:R:1 pbc="T T T"
Si      -0.26523378       1.42917057       1.86518403       0.00000000
Si       2.26266471      -0.23136687      -0.74614983       0.00000000
Si      -0.54121896      -2.26752632       0.59662192       0.00000000
Si      -1.51523064       1.06559406      -1.54683093       0.00000000
Si      -2.61206892       1.04107761       2.48664643       0.00000000
Si       1.07614998       0.41576967       3.59909807       0.00000000
Si      -1.41744177      -3.27638231      -1.35354635       0.00000000
Si       2.19594087      -0.51334677      -3.14864350       0.00000000
Si      -1.89802935       3.28864149      -0.88649681       0.00000000
Si      -3.68940807       0.16202034      -1.45782787       0.00000000
