10
Lattice="16.28999089631971 0.0 0.0 0.0 16.28999089631971 0.0 0.0 0.0 34.64500226677339" Properties=species:S:1:pos:R:3:initial_magmoms:R:1 pbc="T T T"
Si       1.33967331       1.35329175       1.37988350       0.00000000
Si      -1.37147139      -1.35829278       1.38268974       0.00000000
Si       1.50516342      -1.24584291      -1.42929076       0.00000000
Si      -1.21292082       1.22649039      -1.70753532       0.00000000
Si      -2.12874462      -0.78623685      -2.69106160       0.00000000
Si      -0.15744285      -2.25118026      -2.76187483       0.00000000
Si       0.71136801       2.33026821      -2.90100924       0.00000000
Si      -2.71912680       2.71094922      -0.02885584       0.00000000
Si       2.70339066      -0.00210141       2.74080924       0.00000000
Si       2.72616408      -2.71987614      -0.00157288       0.00000000
