10
Lattice="16.28999089631971 0.0 0.0 0.0 16.28999089631971 0.0 0.0 0.0 34.64500226677339" Properties=species:S:1:pos:R:3:initial_magmoms:R:1 pbc="T T T"
Si      -1.35540945      -1.35627282       1.35721872       0.00000000
Si       1.35772263      -1.35723393      -1.35798091       0.00000000
Si      -1.35839052       1.35850455      -1.35763446       0.00000000
Si       1.35752715       1.35972630       1.35735730       0.00000000
Si       0.00068418      -2.71394658      -2.71492247       0.00000000
Si       2.71505430      -2.71417464       0.00000000       0.00000000
Si      -0.00206883      -2.71555929       2.71409099       0.00000000
Si      -2.71539639      -2.71459818       0.00034645       0.00000000
Si      -2.71546155       0.00201996      -2.71457602       0.00000000
Si      -0.00013032       2.71643895      -2.71422957       0.00000000
