10
Lattice="16.28999089631971 0.0 0.0 0.0 16.28999089631971 0.0 0.0 0.0 34.64500226677339" Properties=species:S:1:pos:R:3:initial_magmoms:R:1 pbc="T T T"
Si       1.49672520       1.38906459      -1.08688362       0.00000000
Si      -0.96962967      -1.66689054      -1.29094280       0.00000000
Si      -1.58786775       1.33819092       1.05757393       0.00000000
Si       0.97112835      -1.29054267       1.68568817       0.00000000
Si      -2.16251379      -0.04709439       2.89195854       0.00000000
Si      -2.93686871      -2.13092748      -0.12437563       0.00000000
Si       3.53955636       1.15098624       0.06433581       0.00000000
Si      -3.21853096       1.87927956      -0.55296919       0.00000000
Si       0.64681074      -3.39110559      -1.56706362       0.00000000
Si       1.53567459       0.04463460       3.54719983       0.00000000
