10
Lattice="16.28999089631971 0.0 0.0 0.0 16.28999089631971 0.0 0.0 0.0 34.64500226677339" Properties=species:S:1:pos:R:3:initial_magmoms:R:1 pbc="T T T"
Si      -0.91626363      -1.76106303      -1.19641905       0.00000000
Si      -1.41235929       1.25798088       1.41756342       0.00000000
Si       1.32167286      -1.43259147       1.39596918       0.00000000
Si       1.08846522       1.49005674      -1.53120398       0.00000000
Si       2.69912268       2.70136160      -0.12724077       0.00000000
Si      -0.05548374       2.62224595       2.77903309       0.00000000
Si       0.80598033      -3.47573214      -1.39324751       0.00000000
Si       2.65476501      -0.09839160       2.77892915       0.00000000
Si      -2.77681621       2.66145924       0.12569214       0.00000000
Si      -0.75323331       2.63555000      -2.71571727       0.00000000
