10
Lattice="16.28999089631971 0.0 0.0 0.0 16.28999089631971 0.0 0.0 0.0 34.64500226677339" Properties=species:S:1:pos:R:3:initial_magmoms:R:1 pbc="T T T"
Si       0.61496379      -1.71349623       1.54991433       0.00000000
Si       1.77559371       1.62183470      -0.16861732       0.00000000
Si      -0.41531355      -0.56716893      -2.30728915       0.00000000
Si      -1.90078236       1.01272391       1.10448329       0.00000000
Si      -1.71225819      -2.11302477       1.96967341       0.00000000
Si       0.36005787       3.46997267      -0.47758162       0.00000000
Si      -1.47758445      -0.06349842       3.24429841       0.00000000
Si      -0.89985960       3.12542288       1.55892204       0.00000000
Si       1.06077222      -0.55280115       3.51983026       0.00000000
Si       2.30184216      -3.02876712       0.49441910       0.00000000
