10
Lattice="16.28999089631971 0.0 0.0 0.0 16.28999089631971 0.0 0.0 0.0 34.64500226677339" Properties=species:S:1:pos:R:3:initial_magmoms:R:1 pbc="T T T"
Si       1.34887716       1.34420077       1.39079668       0.00000000
Si      -1.36461330      -1.37459601       1.39381079       0.00000000
Si       1.58488668      -1.19459151      -1.38525001       0.00000000
Si      -1.32025563       1.42515719      -1.51235913       0.00000000
Si      -2.69770545      -2.70879588       0.01085082       0.00000000
Si      -2.71831230       2.69326853       0.02035741       0.00000000
Si       2.71914309      -2.71430190       0.02909835       0.00000000
Si       2.73398328       2.70129950       0.01027571       0.00000000
Si      -0.00415395       2.70494846       2.75172242       0.00000000
Si       2.71243161      -0.01177461       2.75175706       0.00000000
