10
Lattice="16.28999089631971 0.0 0.0 0.0 16.28999089631971 0.0 0.0 0.0 34.64500226677339" Properties=species:S:1:pos:R:3:initial_magmoms:R:1 pbc="T T T"
Si       1.33266861       1.35954711       1.38159496       0.00000000
Si      -1.38510612      -1.35709872       1.38052096       0.00000000
Si      -1.22100066       1.47403323      -1.42771788       0.00000000
Si       1.61290548      -1.19282710      -1.39707436       0.00000000
Si       2.68960932       2.70350469       0.01314432       0.00000000
Si       2.69925300      -2.70404945       0.03666483       0.00000000
Si       2.69192250       0.00221544       2.74272857       0.00000000
Si      -2.73398328      -2.70129950      -0.01027571       0.00000000
Si      -2.72616408       2.71987614       0.00157288       0.00000000
Si      -0.02155167      -2.71307411       2.74148135       0.00000000
