10
Lattice="16.28999089631971 0.0 0.0 0.0 16.28999089631971 0.0 0.0 0.0 34.64500226677339" Properties=species:S:1:pos:R:3:initial_magmoms:R:1 pbc="T T T"
Si      -1.08269856      -1.34646624      -1.55653153       0.00000000
Si       0.72622449       1.90527840      -1.29135854       0.00000000
Si      -1.30846004       0.69603912       1.91219732       0.00000000
Si       1.84904532      -1.30777749       0.95135229       0.00000000
Si      -0.31185087       2.80245015       2.30614586       0.00000000
Si       3.05525466       1.92336030      -0.83009472       0.00000000
Si      -0.20750202       3.75279246       0.15708053       0.00000000
Si      -1.49496099      -3.42429551      -0.58951969       0.00000000
Si       0.14237460       0.58134123      -3.83426848       0.00000000
Si       1.42882848      -1.48941099       3.29106918       0.00000000
