10
Lattice="16.28999089631971 0.0 0.0 0.0 16.28999089631971 0.0 0.0 0.0 34.64500226677339" Properties=species:S:1:pos:R:3:initial_magmoms:R:1 pbc="T T T"
Si       1.36739889       1.33710926      -1.37422943       0.00000000
Si       1.38811977      -1.32914003       1.37124996       0.00000000
Si      -1.35306369      -1.37458019      -1.37700103       0.00000000
Si      -1.22761440       1.56062435       1.47196303       0.00000000
Si      -2.69030979      -2.71223354      -0.00502353       0.00000000
Si      -2.69607645       2.71400522      -0.00062361       0.00000000
Si       0.01145187       2.69949083      -2.73543233       0.00000000
Si      -2.70288567      -0.01792877      -2.73539768       0.00000000
Si       2.74100427       2.70079403      -0.00412276       0.00000000
Si       2.72811888      -0.01619063      -2.73550162       0.00000000
