10
Lattice="16.28999089631971 0.0 0.0 0.0 16.28999089631971 0.0 0.0 0.0 34.64500226677339" Properties=species:S:1:pos:R:3:initial_magmoms:R:1 pbc="T T T"
Si      -1.46846205       1.15338087      -1.47258664       0.00000000
Si       1.12892958       1.74276936       1.31235342       0.00000000
Si       1.22761440      -1.56062435      -1.47196303       0.00000000
Si      -1.88871147      -0.90826524       1.33896080       0.00000000
Si      -0.12566106       2.49513930      -2.84927587       0.00000000
Si      -2.81303865       2.56899816      -0.06007447       0.00000000
Si       2.76486912       2.64860739      -0.09981231       0.00000000
Si       2.59501329      -0.22351509      -2.84619246       0.00000000
Si       2.61573417      -2.88976439      -0.10071308       0.00000000
Si      -2.77296525      -2.86638677      -0.01971302       0.00000000
