10
Lattice="16.28999089631971 0.0 0.0 0.0 16.28999089631971 0.0 0.0 0.0 34.64500226677339" Properties=species:S:1:pos:R:3:initial_magmoms:R:1 pbc="T T T"
Si       1.16211231      -1.65425506       1.35999032       0.00000000
Si       0.67790835      -1.63478851      -1.74572799       0.00000000
Si      -2.07961398       0.67191526       1.28574604       0.00000000
Si       1.11912300       2.87173315       0.33875902       0.00000000
Si      -2.64978027       1.56055105      -1.99118797       0.00000000
Si       1.43208648      -0.61653319       3.44974338       0.00000000
Si       1.53676602       1.85512312       2.94181272       0.00000000
Si       1.85466537      -0.42094810      -3.43086185       0.00000000
Si      -2.92425048       2.63640781       0.27688301       0.00000000
Si      -0.18150318      -3.64640803       1.58074840       0.00000000
