10
Lattice="16.28999089631971 0.0 0.0 0.0 16.28999089631971 0.0 0.0 0.0 34.64500226677339" Properties=species:S:1:pos:R:3:initial_magmoms:R:1 pbc="T T T"
Si       0.58494132      -1.86768827       1.33948047       0.00000000
Si       1.83806586       1.50853545      -0.27833810       0.00000000
Si      -0.97412571      -0.93006615      -2.02181417       0.00000000
Si      -1.80115272       1.27022904       1.03848452       0.00000000
Si      -2.38966155       0.91807182      -2.33077848       0.00000000
Si       2.93438286      -1.96945190       0.12926058       0.00000000
Si       1.32001128       2.40868827      -2.40980377       0.00000000
Si      -3.64957902       0.57352203      -0.29427481       0.00000000
Si       0.94397292      -1.36627162      -3.41804319       0.00000000
Si      -1.08465336       2.91116961      -2.20979806       0.00000000
