10
Lattice="16.28999089631971 0.0 0.0 0.0 16.28999089631971 0.0 0.0 0.0 34.64500226677339" Properties=species:S:1:pos:R:3:initial_magmoms:R:1 pbc="T T T"
Si       1.63593954       0.90583803      -1.41216573       0.00000000
Si      -1.34213310       1.65288114       1.18291962       0.00000000
Si      -1.12892958      -1.74276936      -1.31235342       0.00000000
Si       0.75126222      -1.33985250       2.35655437       0.00000000
Si       0.11709252       2.12698530      -2.77724887       0.00000000
Si       3.05111700       2.25372150       0.05560526       0.00000000
Si      -2.59739163      -0.58938849      -2.78494006       0.00000000
Si       2.96264601      -1.95093927       1.54430184       0.00000000
Si      -2.51315604       0.57536280       2.90450003       0.00000000
Si      -2.98370898       2.63769309      -0.18583590       0.00000000
