10
Lattice="16.28999089631971 0.0 0.0 0.0 16.28999089631971 0.0 0.0 0.0 34.64500226677339" Properties=species:S:1:pos:R:3:initial_magmoms:R:1 pbc="T T T"
Si      -0.52160580       1.38305358      -1.84966306       0.00000000
Si       0.27353842       1.18612377       2.03442496       0.00000000
Si      -1.58786028      -1.78691037       0.04368737       0.00000000
Si       2.21568272      -0.80239653      -0.47079120       0.00000000
Si       2.40987581       2.19419784       1.43208661       0.00000000
Si       0.42543616      -0.68222520       3.51418312       0.00000000
Si       2.00511818      -2.99901248       0.24196083       0.00000000
Si       0.86757119      -2.68446887       2.33406975       0.00000000
Si      -0.98938651      -3.09004100      -1.93894328       0.00000000
Si       0.47500337       3.48946461      -1.45571452       0.00000000
