10
Lattice="16.28999089631971 0.0 0.0 0.0 16.28999089631971 0.0 0.0 0.0 34.64500226677339" Properties=species:S:1:pos:R:3:initial_magmoms:R:1 pbc="T T T"
Si       1.43752734       1.77420906       0.34842498       0.00000000
Si       0.85815720      -0.59710995      -2.10988182       0.00000000
Si      -2.37851919       0.40410603       0.14928540       0.00000000
Si       0.14165784      -2.23805052       1.13840077       0.00000000
Si      -1.70676846      -2.93475753      -0.19435857       0.00000000
Si      -0.44685099      -2.59020774      -2.23086223       0.00000000
Si       3.27054330       0.17847324       1.13025919       0.00000000
Si      -2.94878322      -1.48815666       1.36743900       0.00000000
Si      -0.25013295       0.74956806      -3.68505237       0.00000000
Si       1.94281056      -3.50827956       0.09991624       0.00000000
