10
Lattice="16.28999089631971 0.0 0.0 0.0 16.28999089631971 0.0 0.0 0.0 34.64500226677339" Properties=species:S:1:pos:R:3:initial_magmoms:R:1 pbc="T T T"
Si       1.84668327       1.59462810      -0.20683078       0.00000000
Si       0.39169305      -0.64951488       2.33143673       0.00000000
Si      -2.40891796       0.48622392       0.29008277       0.00000000
Si       0.32742900      -1.91630673      -1.53162176       0.00000000
Si      -0.68509224       1.18786680       3.40986696       0.00000000
Si      -3.21135263      -1.78626366       0.24137187       0.00000000
Si       0.56037600      -3.72000721       0.01319975       0.00000000
Si      -1.54569946      -3.29495224       1.19151158       0.00000000
Si       3.16407186       1.03674447      -2.13960725       0.00000000
Si       2.60703531      -0.16936713       3.00143680       0.00000000
