10
Lattice="16.28999089631971 0.0 0.0 0.0 16.28999089631971 0.0 0.0 0.0 34.64500226677339" Properties=species:S:1:pos:R:3:initial_magmoms:R:1 pbc="T T T"
Si      -1.59128865       0.95226453      -1.47660547       0.00000000
Si      -1.94584050      -1.32610374       0.37818506       0.00000000
Si       1.30971600      -1.73418453      -1.24365234       0.00000000
Si       0.77735880       1.20510162       2.24465095       0.00000000
Si       0.21577734       1.90882962      -2.65689206       0.00000000
Si       2.23557444      -2.23475994       0.88199296       0.00000000
Si       2.27699991      -0.56588202       2.65567949       0.00000000
Si      -3.50420706       0.30936339       0.95831594       0.00000000
Si      -1.25408565      -2.78472663       2.03584541       0.00000000
Si       1.63677033       3.21672114      -1.08182545       0.00000000
