10
Lattice="16.28999089631971 0.0 0.0 0.0 16.28999089631971 0.0 0.0 0.0 34.64500226677339" Properties=species:S:1:pos:R:3:initial_magmoms:R:1 pbc="T T T"
Si      -0.07253937       1.05494040       2.09106957       0.00000000
Si       1.24167267       1.37186235      -1.45848612       0.00000000
Si      -2.17316745      -0.56163033      -0.78595696       0.00000000
Si       0.93242331      -2.45104227      -0.01444697       0.00000000
Si      -1.15069302      -2.57898393      -1.37176963       0.00000000
Si       1.01674035       0.05672178      -3.43055004       0.00000000
Si       1.87489755       0.44064450       3.18560974       0.00000000
Si      -1.45163448      -0.22173948       3.50863992       0.00000000
Si      -2.21200281      -2.08376793       2.31747479       0.00000000
Si       3.53132991       1.46670273      -0.86882785       0.00000000
