10
Lattice="16.28999089631971 0.0 0.0 0.0 16.28999089631971 0.0 0.0 0.0 34.64500226677339" Properties=species:S:1:pos:R:3:initial_magmoms:R:1 pbc="T T T"
Si      -1.94743692       0.61429590      -1.09454017       0.00000000
Si      -0.63210087       0.25915761       2.23668260       0.00000000
Si       1.58262237       1.68365295      -0.39297848       0.00000000
Si       0.71224767      -2.25676773      -0.01448162       0.00000000
Si      -3.32653203      -0.66238398       0.32303018       0.00000000
Si       1.47074265      -0.10606419       3.12137787       0.00000000
Si       2.22022926      -1.93085370       1.80729220       0.00000000
Si       0.84797595       3.31612272       1.20131612       0.00000000
Si      -0.97837740       2.54521476       2.47271913       0.00000000
Si      -2.48192811      -1.14100047       2.51879701       0.00000000
