10
Lattice="16.28999089631971 0.0 0.0 0.0 16.28999089631971 0.0 0.0 0.0 34.64500226677339" Properties=species:S:1:pos:R:3:initial_magmoms:R:1 pbc="T T T"
Si      -1.50395796      -1.36142046       1.12055858       0.00000000
Si       0.34340949       0.97735113      -2.09321756       0.00000000
Si      -0.83815308       2.08029816       0.75837952       0.00000000
Si       1.80416637      -1.46880414       0.44338699       0.00000000
Si      -2.50155756       0.70128450       2.08878300       0.00000000
Si       0.32905800      -2.95715628       1.90239278       0.00000000
Si       1.85694597      -2.43654417      -1.78529261       0.00000000
Si       1.09289610      -0.84743838      -3.40730323       0.00000000
Si      -1.75943403       1.34257293      -2.97791283       0.00000000
Si       0.75021966       2.78734932       2.34879389       0.00000000
