10
Lattice="16.28999089631971 0.0 0.0 0.0 16.28999089631971 0.0 0.0 0.0 34.64500226677339" Properties=species:S:1:pos:R:3:initial_magmoms:R:1 pbc="T T T"
Si       1.70843004       0.98624547       1.30814201       0.00000000
Si      -0.99026910      -1.85903109       1.33177684       0.00000000
Si      -1.70461818       1.87986600       0.00890377       0.00000000
Si       1.68256152      -0.22081095      -1.94798563       0.00000000
Si       0.28826784       2.15793630       2.81314600       0.00000000
Si      -1.56921570      -2.30687577      -2.20799652       0.00000000
Si       0.09418878      -0.92786211      -3.53839999       0.00000000
Si      -2.43954153      -0.57267495       2.78529140       0.00000000
Si       2.78622531       2.79366984      -0.01084389       0.00000000
Si      -3.61284507       0.95817780       1.28589991       0.00000000
