10
Lattice="16.28999089631971 0.0 0.0 0.0 16.28999089631971 0.0 0.0 0.0 34.64500226677339" Properties=species:S:1:pos:R:3:initial_magmoms:R:1 pbc="T T T"
Si      -1.34628705      -1.34327340      -1.36450457       0.00000000
Si      -1.35299853       1.35925389       1.35815414       0.00000000
Si       1.36024758      -1.35233064       1.35853523       0.00000000
Si       1.36780614       1.36827855      -1.34666238       0.00000000
Si      -2.48054346       0.17643699      -2.77885293       0.00000000
Si       0.07387515      -2.51496423      -2.86950856       0.00000000
Si      -2.71156824      -2.71318095      -0.00488495       0.00000000
Si      -2.71270854       0.00115659       2.71554609       0.00000000
Si       0.00143352      -2.71264338       2.71578860       0.00000000
Si       2.71326240       2.71797088       0.00308341       0.00000000
