10
Lattice="16.28999089631971 0.0 0.0 0.0 16.28999089631971 0.0 0.0 0.0 34.64500226677339" Properties=species:S:1:pos:R:3:initial_magmoms:R:1 pbc="T T T"
Si      -0.12272234      -0.68611918       2.31747479       0.00000000
Si      -1.66565317       1.50868858      -0.95013972       0.00000000
Si       2.10607546      -0.42505497      -1.17831183       0.00000000
Si      -0.60480372      -2.47783999       0.68659504       0.00000000
Si      -0.90024241      -2.66473516      -1.75064759       0.00000000
Si       1.90717456       0.69912445       2.65034415       0.00000000
Si       1.93739251       2.64543736       1.13992515       0.00000000
Si       1.87312846       1.37864551      -2.72313334       0.00000000
Si       1.43984704      -2.55611344      -2.08947590       0.00000000
Si      -3.41200633       1.32723427       0.69026741       0.00000000
