10
Lattice="16.28999089631971 0.0 0.0 0.0 16.28999089631971 0.0 0.0 0.0 34.64500226677339" Properties=species:S:1:pos:R:3:initial_magmoms:R:1 pbc="T T T"
Si       0.93683790       1.75521396       1.18977275       0.00000000
Si      -0.46056717       0.14473665      -2.29272546       0.00000000
Si      -1.82516418      -0.94784994       1.19132138       0.00000000
Si       1.80704970      -1.83182679      -0.21832015       0.00000000
Si       2.02318542       0.24399162       2.62351193       0.00000000
Si      -2.73445569      -1.09227708      -1.96557252       0.00000000
Si      -0.69090777      -2.46756033       2.60566975       0.00000000
Si       2.80769553       2.55452354      -0.20044332       0.00000000
Si       3.46851567      -0.96565491       1.23119434       0.00000000
Si      -2.68379379      -2.74563063      -0.19857249       0.00000000
