10
Lattice="16.28999089631971 0.0 0.0 0.0 16.28999089631971 0.0 0.0 0.0 34.64500226677339" Properties=species:S:1:pos:R:3:initial_magmoms:R:1 pbc="T T T"
Si       0.69711426       0.98411148       1.99763195       0.00000000
Si      -1.73933217       1.12229955      -1.21236789       0.00000000
Si       1.94688306       0.26091693      -1.39255664       0.00000000
Si       0.14037093      -2.41377075       0.37070173       0.00000000
Si       2.43002817      -2.31893037       0.96036000       0.00000000
Si       2.41509024      -0.54006237       2.60728039       0.00000000
Si      -2.33468280      -0.63482130      -2.67889165       0.00000000
Si       3.44652417      -1.51006671      -0.98152811       0.00000000
Si       1.52202357       3.16021113       1.68963770       0.00000000
Si      -1.08523980       1.58975739       3.38894137       0.00000000
