10
Lattice="16.28999089631971 0.0 0.0 0.0 16.28999089631971 0.0 0.0 0.0 34.64500226677339" Properties=species:S:1:pos:R:3:initial_magmoms:R:1 pbc="T T T"
Si      -0.89595000       1.56318840       1.49048396       0.00000000
Si       0.03021795       1.94631291      -1.51041901       0.00000000
Si       1.84169853      -1.14549325       1.18451329       0.00000000
Si      -2.02989690      -1.38524363      -0.33286937       0.00000000
Si      -1.90717456      -0.69912445      -2.65034415       0.00000000
Si       2.24556021       2.42646066      -0.84041893       0.00000000
Si      -2.02358290       0.02590924       2.84140941       0.00000000
Si       2.90985012      -2.20906151      -0.71684014       0.00000000
Si       0.75323331      -2.63555000       2.71571727       0.00000000
Si       0.71928495       2.70003492       2.73895715       0.00000000
