10
Lattice="16.28999089631971 0.0 0.0 0.0 16.28999089631971 0.0 0.0 0.0 34.64500226677339" Properties=species:S:1:pos:R:3:initial_magmoms:R:1 pbc="T T T"
Si      -1.82635335      -0.77090796       1.27140300       0.00000000
Si       1.42193781      -1.08234018       1.58816244       0.00000000
Si       0.73464642      -1.63246977      -1.59429461       0.00000000
Si      -0.13186755       2.44395612      -0.41449304       0.00000000
Si       3.42120951      -0.80431875       0.41057815       0.00000000
Si       1.10680776       0.43262982       3.33863680       0.00000000
Si      -1.48007682      -3.05696511       1.03536647       0.00000000
Si      -0.84797595      -3.31612272      -1.20131612       0.00000000
Si       3.31949475       1.37652129      -0.52684684       0.00000000
Si      -1.16719479      -0.33412419       3.52655140       0.00000000
