10
Lattice="16.28999089631971 0.0 0.0 0.0 16.28999089631971 0.0 0.0 0.0 34.64500226677339" Properties=species:S:1:pos:R:3:initial_magmoms:R:1 pbc="T T T"
Si      -1.35286821      -1.33843527      -1.38259967       0.00000000
Si      -1.35580041       1.35780408       1.36348947       0.00000000
Si       1.36034532      -1.35816246       1.36314302       0.00000000
Si       1.36818081       1.35532800      -1.40555199       0.00000000
Si      -2.71456234       2.71306692       0.00627075       0.00000000
Si       2.71583622      -2.71391400       0.00599359       0.00000000
Si       2.71593396       2.71425609      -0.00027716       0.00000000
Si      -2.71567169      -2.71753038       0.00422669       0.00000000
Si      -2.71344322      -0.00084708       2.72053497       0.00000000
Si       0.00127062       2.71428867       2.72043103       0.00000000
