10
Lattice="16.28999089631971 0.0 0.0 0.0 16.28999089631971 0.0 0.0 0.0 34.64500226677339" Properties=species:S:1:pos:R:3:initial_magmoms:R:1 pbc="T T T"
Si      -1.35638685      -1.35529542       1.35732266       0.00000000
Si       1.35720135      -1.35744570      -1.35725337       0.00000000
Si      -1.35796698       1.35775521      -1.35742659       0.00000000
Si       1.35879777       1.36011726       1.35808485       0.00000000
Si      -2.71384884       0.00076563      -2.71395241       0.00000000
Si       0.00084708      -2.71479366      -2.71360596       0.00000000
Si       2.71451009       2.71482624      -0.00076219       0.00000000
Si       0.00094482       2.71650411      -2.71336345       0.00000000
Si      -2.71511946       2.71484253       0.00017323       0.00000000
Si      -0.00495216       2.71435383       2.71571931       0.00000000
