10
Lattice="16.28999089631971 0.0 0.0 0.0 16.28999089631971 0.0 0.0 0.0 34.64500226677339" Properties=species:S:1:pos:R:3:initial_magmoms:R:1 pbc="T T T"
Si      -0.96541056       2.01243402      -0.99763804       0.00000000
Si      -1.05388155      -2.19222675       0.49105854       0.00000000
Si       2.23396892      -1.21647204      -0.84450705       0.00000000
Si      -1.91532933       0.73883295       2.45844538       0.00000000
Si       0.38767661      -2.04833718      -2.49724780       0.00000000
Si       2.81781881       0.10746513       1.69840290       0.00000000
Si      -2.38058802       0.66455055      -2.46540903       0.00000000
Si       1.00889576      -3.14427951       1.43322990       0.00000000
Si      -0.34963227       2.62185921       2.69236857       0.00000000
Si       3.08077199       0.62191962      -2.23044649       0.00000000
