10
Lattice="16.28999089631971 0.0 0.0 0.0 16.28999089631971 0.0 0.0 0.0 34.64500226677339" Properties=species:S:1:pos:R:3:initial_magmoms:R:1 pbc="T T T"
Si      -1.64975346       1.70429238       0.09004241       0.00000000
Si      -1.28200671      -1.92699297       0.55501325       0.00000000
Si       1.50899157       1.14368832       1.52403450       0.00000000
Si       1.14103305      -0.91224000      -2.06148272       0.00000000
Si      -2.14120647      -2.00342565      -1.67792769       0.00000000
Si      -0.54568242       3.17607759      -1.37734748       0.00000000
Si       3.06555550       2.12317344       0.04382595       0.00000000
Si      -1.04001876       1.69722252      -3.20199683       0.00000000
Si       2.22887925      -0.57642165       2.99620541       0.00000000
Si      -2.75659380       0.15457581      -2.61126457       0.00000000
