10
Lattice="16.28999089631971 0.0 0.0 0.0 16.28999089631971 0.0 0.0 0.0 34.64500226677339" Properties=species:S:1:pos:R:3:initial_magmoms:R:1 pbc="T T T"
Si       1.79376425       0.92618424      -1.22317713       0.00000000
Si      -0.44624826      -2.34597177       0.31308706       0.00000000
Si      -1.59630597       0.28178442      -1.82031873       0.00000000
Si       0.26234037       0.97107948       2.23484641       0.00000000
Si      -2.77128738      -1.93997610       0.88459134       0.00000000
Si      -3.53533725      -0.35087031      -0.73741929       0.00000000
Si      -0.47299644      -3.33570330      -1.87855701       0.00000000
Si       2.07750347       3.23939682      -0.51808165       0.00000000
Si      -1.19288412      -1.61559333      -3.35072791       0.00000000
Si       2.69321660       0.86956020       2.69759996       0.00000000
