10
Lattice="16.28999089631971 0.0 0.0 0.0 16.28999089631971 0.0 0.0 0.0 34.64500226677339" Properties=species:S:1:pos:R:3:initial_magmoms:R:1 pbc="T T T"
Si       1.35707103       1.35648459       1.35694156       0.00000000
Si      -1.35876193       1.35526284      -1.35721872       0.00000000
Si      -1.35764281      -1.35865116       1.35704550       0.00000000
Si       1.35580041      -1.35780408      -1.36348947       0.00000000
Si      -2.71151548       2.71432125       0.00058897       0.00000000
Si       0.00014661       2.71386513       2.71433351       0.00000000
Si      -2.71338619      -2.71554300       0.00048503       0.00000000
Si      -2.71513329      -0.00146610       2.71381383       0.00000000
Si       2.71533123       2.71441899       0.00034645       0.00000000
Si       2.71546155      -0.00201996       2.71457602       0.00000000
