10
Lattice="16.28999089631971 0.0 0.0 0.0 16.28999089631971 0.0 0.0 0.0 34.64500226677339" Properties=species:S:1:pos:R:3:initial_magmoms:R:1 pbc="T T T"
Si      -0.02034621       0.44035128       2.27797946       0.00000000
Si      -0.83505798      -2.17168506      -0.22903824       0.00000000
Si      -1.04638815       1.69986150      -1.24988845       0.00000000
Si       2.36342555      -0.14041980      -0.34111488       0.00000000
Si       1.36752662      -1.44894663       2.83361632       0.00000000
Si       0.42805789      -3.24061857       1.53709567       0.00000000
Si       1.08586438       2.56126041       2.40502276       0.00000000
Si       3.10289381       2.05444593      -0.78211136       0.00000000
Si      -3.01826007       0.81039492      -2.17300505       0.00000000
Si       3.33476567      -0.98490969       1.66704915       0.00000000
