10
Lattice="16.28999089631971 0.0 0.0 0.0 16.28999089631971 0.0 0.0 0.0 34.64500226677339" Properties=species:S:1:pos:R:3:initial_magmoms:R:1 pbc="T T T"
Si      -1.35402647      -1.33711578      -1.34593830       0.00000000
Si      -1.35351491       1.35979146       1.35974781       0.00000000
Si       1.36065320      -1.35516510       1.35888168       0.00000000
Si       1.36280348       1.37909511      -1.38682636       0.00000000
Si      -0.00103441      -2.67401164      -2.65219766       0.00000000
Si      -2.58949980       0.08838954      -2.78514447       0.00000000
Si      -2.70983403       2.71748151      -0.00336057       0.00000000
Si      -2.71613826      -2.71232410       0.00391489       0.00000000
Si      -2.71257075       0.00159642       2.71658544       0.00000000
Si       0.00285727      -2.71347580       2.71675866       0.00000000
