10
Lattice="16.28999089631971 0.0 0.0 0.0 16.28999089631971 0.0 0.0 0.0 34.64500226677339" Properties=species:S:1:pos:R:3:initial_magmoms:R:1 pbc="T T T"
Si       1.36270216      -1.35384561       1.36449418       0.00000000
Si      -1.35480672       1.36386396       1.36400915       0.00000000
Si      -1.34397387      -1.35026181      -1.40879130       0.00000000
Si       1.36537893       1.36155078      -1.38087088       0.00000000
Si       2.71545570      -2.71290402       0.00668649       0.00000000
Si      -2.71559187      -2.71300176       0.00277160       0.00000000
Si      -2.71505430       2.71619460       0.00547391       0.00000000
Si       0.00229689      -2.71231758       2.72091606       0.00000000
Si       2.71892710       2.71551042       0.00287554       0.00000000
Si      -2.71362078       0.00355122       2.72126251       0.00000000
