10
Lattice="16.28999089631971 0.0 0.0 0.0 16.28999089631971 0.0 0.0 0.0 34.64500226677339" Properties=species:S:1:pos:R:3:initial_magmoms:R:1 pbc="T T T"
Si       1.33912548       1.35678918      -1.38050018       0.00000000
Si      -1.37406150      -1.35873261      -1.38036160       0.00000000
Si      -1.35376416       1.40384697       1.36771616       0.00000000
Si       1.52614724      -1.26174195       1.46742454       0.00000000
Si       0.28647594       2.67571462       2.44365196       0.00000000
Si      -0.13030371      -2.35662543       2.79665008       0.00000000
Si       2.69873076      -2.71228500      -0.01455091       0.00000000
Si       2.70737912       2.70485091      -0.01108641       0.00000000
Si      -2.74260069      -2.69425197      -0.01015099       0.00000000
Si       2.69870144       0.00210141      -2.73889683       0.00000000
