10
Lattice="16.28999089631971 0.0 0.0 0.0 16.28999089631971 0.0 0.0 0.0 34.64500226677339" Properties=species:S:1:pos:R:3:initial_magmoms:R:1 pbc="T T T"
Si       1.17675702       1.21384041      -1.68513385       0.00000000
Si      -0.67790835       1.63478851       1.74572799       0.00000000
Si      -1.42099299      -1.30789152      -1.57506662       0.00000000
Si       0.48420396      -0.01946655       3.10571832       0.00000000
Si       2.58512526      -0.66393153       1.90946037       0.00000000
Si       2.40021747      -2.54663199      -0.25619993       0.00000000
Si      -1.63677033      -3.21672114       1.08182545       0.00000000
Si       2.81699712       2.48570806      -0.60919806       0.00000000
Si      -3.22805898      -2.26445661      -0.39478002       0.00000000
Si       2.53052118      -0.19000656      -3.05285002       0.00000000
