10
Lattice="16.28999089631971 0.0 0.0 0.0 16.28999089631971 0.0 0.0 0.0 34.64500226677339" Properties=species:S:1:pos:R:3:initial_magmoms:R:1 pbc="T T T"
Si       1.20972798      -1.91238084       0.71673621       0.00000000
Si      -2.10092130       0.64446498       1.19625795       0.00000000
Si       1.71798805       1.52948439       1.27195732       0.00000000
Si      -0.18490779      -1.88270046      -2.16566030       0.00000000
Si      -2.58512526       0.66393153      -1.90946037       0.00000000
Si       0.02697624      -2.22920505       2.75116117       0.00000000
Si       0.88493796      -3.60803952      -0.96281980       0.00000000
Si       1.47154316      -0.78781698      -3.49488585       0.00000000
Si       3.81261653       0.77276502       0.44473814       0.00000000
Si       3.51227780      -1.44757827       1.03217913       0.00000000
