10
Lattice="16.28999089631971 0.0 0.0 0.0 16.28999089631971 0.0 0.0 0.0 34.64500226677339" Properties=species:S:1:pos:R:3:initial_magmoms:R:1 pbc="T T T"
Si       0.87700473       1.91324421       1.11796020       0.00000000
Si      -1.56481740       0.79206867      -1.62332713       0.00000000
Si       1.85082093      -1.28262573      -0.96825906       0.00000000
Si      -1.64204829      -1.25274987       1.40010926       0.00000000
Si       3.47249110      -0.57518361       0.69854757       0.00000000
Si      -0.45655983       3.63653073       0.05262579       0.00000000
Si      -1.24968735      -0.72290133      -3.37380150       0.00000000
Si      -3.23042103      -1.95980103      -0.19030510       0.00000000
Si      -0.53838450       1.76173092       3.33725100       0.00000000
Si      -0.87594588       3.01221648      -2.18984253       0.00000000
