10
Lattice="16.28999089631971 0.0 0.0 0.0 16.28999089631971 0.0 0.0 0.0 34.64500226677339" Properties=species:S:1:pos:R:3:initial_magmoms:R:1 pbc="T T T"
Si      -0.41938605      -0.62431425      -2.24246831       0.00000000
Si       0.89927316       2.19122396       0.01860438       0.00000000
Si       1.33356456      -1.72328652       1.06533442       0.00000000
Si      -2.34944154       0.10176363       1.21021990       0.00000000
Si      -1.10825757      -2.84446206      -1.67595292       0.00000000
Si      -2.93438286       1.96945190      -0.12926058       0.00000000
Si       0.45655983      -3.63653073      -0.05262579       0.00000000
Si      -1.09631700       3.47798735      -0.40759868       0.00000000
Si      -0.08182467      -1.87479981       3.28462521       0.00000000
Si       2.64562632       2.37267827      -1.62180275       0.00000000
