10
Lattice="16.28999089631971 0.0 0.0 0.0 16.28999089631971 0.0 0.0 0.0 34.64500226677339" Properties=species:S:1:pos:R:3:initial_magmoms:R:1 pbc="T T T"
Si       2.41388478       0.02689479       0.25928334       0.00000000
Si      -0.59233698       1.22093550      -2.07281164       0.00000000
Si      -0.74684763       1.12589964       2.11798875       0.00000000
Si      -0.80619210      -2.41860888       0.44747510       0.00000000
Si      -2.94056654      -2.03168880      -0.37007812       0.00000000
Si       1.11368214       0.29411595      -3.51681615       0.00000000
Si       3.05619948      -1.88358012      -1.17910867       0.00000000
Si      -0.02552643       3.51787437      -1.67792769       0.00000000
Si      -1.74212428      -0.63065106       3.46480846       0.00000000
Si      -4.00731461       0.06880896      -0.77331153       0.00000000
