10
Lattice="16.28999089631971 0.0 0.0 0.0 16.28999089631971 0.0 0.0 0.0 34.64500226677339" Properties=species:S:1:pos:R:3:initial_magmoms:R:1 pbc="T T T"
Si      -1.35275354       1.35905841       1.35780769       0.00000000
Si       1.35876193      -1.35526284       1.35721872       0.00000000
Si       1.34849923       1.37173203      -1.36124794       0.00000000
Si      -1.35137997      -1.34972424      -1.38368752       0.00000000
Si      -2.71094337      -2.71311579      -0.00540462       0.00000000
Si      -2.71315881       0.00058644       2.71422957       0.00000000
Si       2.71456234      -2.71306692      -0.00627075       0.00000000
Si       2.71602844       2.71205694      -0.00284089       0.00000000
Si       0.00111912      -2.71391400       2.71426422       0.00000000
Si      -2.71545570       2.71290402      -0.00668649       0.00000000
