10
Lattice="16.28999089631971 0.0 0.0 0.0 16.28999089631971 0.0 0.0 0.0 34.64500226677339" Properties=species:S:1:pos:R:3:initial_magmoms:R:1 pbc="T T T"
Si      -1.35619137      -1.35589815       1.35805020       0.00000000
Si      -1.35663283       1.35643572      -1.35711479       0.00000000
Si       1.35692442      -1.35738054      -1.35739195       0.00000000
Si       1.35935163       1.35773892       1.35739195       0.00000000
Si      -2.71166209       0.00045612      -2.71374454       0.00000000
Si      -0.00014661      -2.71386513      -2.71433351       0.00000000
Si       2.71518462       0.00055386      -2.71398706       0.00000000
Si      -2.71496836       2.71464705       0.00013858       0.00000000
Si       2.71508688       2.71472850       0.00003465       0.00000000
Si       2.71393029       0.00045612       2.71596183       0.00000000
