10
Lattice="16.28999089631971 0.0 0.0 0.0 16.28999089631971 0.0 0.0 0.0 34.64500226677339" Properties=species:S:1:pos:R:3:initial_magmoms:R:1 pbc="T T T"
Si      -1.35619939       1.35547461      -1.35808485       0.00000000
Si      -1.35605278      -1.35438318       1.36425166       0.00000000
Si       1.36021417      -1.35803214      -1.35777304       0.00000000
Si       1.35939153       1.35764118       1.36615714       0.00000000
Si       0.13868539      -2.55213801       2.75396741       0.00000000
Si      -2.63276524       0.13906773       2.70847850       0.00000000
Si      -2.71340074       2.71119357       0.00034645       0.00000000
Si       2.71238191       2.71264338       0.00301412       0.00000000
Si       0.00143718       2.71251306      -2.71568467       0.00000000
Si      -2.71341703      -0.00237834      -2.71561538       0.00000000
