10
Lattice="16.28999089631971 0.0 0.0 0.0 16.28999089631971 0.0 0.0 0.0 34.64500226677339" Properties=species:S:1:pos:R:3:initial_magmoms:R:1 pbc="T T T"
Si      -1.38470864      -1.21508739       1.44681075       0.00000000
Si      -1.41547883       1.21702590      -1.41576881       0.00000000
Si       0.96871743       1.69271019       1.36743900       0.00000000
Si       1.30059360      -1.48085874      -1.40499421       0.00000000
Si       0.30206547      -1.76731839       3.05551768       0.00000000
Si       0.98420922       0.55223100       3.47950346       0.00000000
Si      -2.58806235       2.66756895       0.06620664       0.00000000
Si      -2.63618496      -2.69275329      -0.02795853       0.00000000
Si      -0.06248844       2.57202810      -2.77891183       0.00000000
Si       2.75362902       2.60959284       0.07964890       0.00000000
