10
Lattice="16.28999089631971 0.0 0.0 0.0 16.28999089631971 0.0 0.0 0.0 34.64500226677339" Properties=species:S:1:pos:R:3:initial_magmoms:R:1 pbc="T T T"
Si      -1.21554351      -2.01831471       0.05214076       0.00000000
Si       2.36666007       0.04562829      -0.14758779       0.00000000
Si      -0.78420060       1.49561748       1.69351795       0.00000000
Si       0.14068044       0.34239951      -2.47199158       0.00000000
Si       0.82282419       2.66194890      -2.04800581       0.00000000
Si       2.66291001       2.35996488      -0.50512442       0.00000000
Si      -3.44926808      -1.35143469      -0.40233264       0.00000000
Si       0.18713952       0.65112759       3.70168198       0.00000000
Si       2.87969733      -1.74858489      -1.70782634       0.00000000
Si      -0.04473234       3.69048321       1.25252147       0.00000000
