10
Lattice="16.28999089631971 0.0 0.0 0.0 16.28999089631971 0.0 0.0 0.0 34.64500226677339" Properties=species:S:1:pos:R:3:initial_magmoms:R:1 pbc="T T T"
Si       1.96723904       0.46403694      -1.16656717       0.00000000
Si       0.49061570      -0.22937949       2.31123868       0.00000000
Si      -0.93946873      -1.79167194      -1.29652064       0.00000000
Si      -1.38787283       1.88929791      -0.55563686       0.00000000
Si      -1.36752662       1.44894663      -2.83361632       0.00000000
Si      -2.89945451      -0.87377931       1.71409709       0.00000000
Si       0.99589892       1.30852683      -3.17473120       0.00000000
Si      -3.18382904       1.37666790       0.89744464       0.00000000
Si       2.93686871       2.13092748       0.12437563       0.00000000
Si      -2.49603266      -2.77115706       0.18368790       0.00000000
