10
Lattice="16.28999089631971 0.0 0.0 0.0 16.28999089631971 0.0 0.0 0.0 34.64500226677339" Properties=species:S:1:pos:R:3:initial_magmoms:R:1 pbc="T T T"
Si      -1.35718995      -1.35579063       1.35763446       0.00000000
Si      -1.35730724       1.35736330      -1.35683763       0.00000000
Si       1.35783666      -1.35810381      -1.35711479       0.00000000
Si       1.36008468       1.35874469       1.35659511       0.00000000
Si      -2.71389500       0.00265361      -2.71488783       0.00000000
Si       0.00143352      -2.71396938      -2.71488783       0.00000000
Si       2.71591767      -0.00192946       2.71343274       0.00000000
Si       2.71495656       2.71453370       0.00020787       0.00000000
Si       0.00081450       2.71178069       2.71786730       0.00000000
Si      -2.71495064       2.71472918      -0.00010394       0.00000000
