10
Lattice="16.28999089631971 0.0 0.0 0.0 16.28999089631971 0.0 0.0 0.0 34.64500226677339" Properties=species:S:1:pos:R:3:initial_magmoms:R:1 pbc="T T T"
Si       1.17258352      -1.45054305      -1.48197545       0.00000000
Si      -1.65645095      -1.09488348       1.32922554       0.00000000
Si      -1.52614724       1.26174195      -1.46742454       0.00000000
Si       1.94869614       0.94504806       1.39234877       0.00000000
Si       2.58806235      -2.66756895      -0.06620664       0.00000000
Si       2.52557391      -0.09554085      -2.84511847       0.00000000
Si       2.68673088       2.71628747      -0.04985419       0.00000000
Si      -0.58660520      -2.82022254       2.53206605       0.00000000
Si      -1.47154316       0.78781698       3.49488585       0.00000000
Si      -0.18702176       2.61853113      -2.84792471       0.00000000
