10
Lattice="16.28999089631971 0.0 0.0 0.0 16.28999089631971 0.0 0.0 0.0 34.376317263855086" Properties=species:S:1:pos:R:3:initial_magmoms:R:1 pbc="T T T"
Si       1.35583299       1.35738054       1.35721214       0.00000000
Si       1.35747828      -1.35729094      -1.35748715       0.00000000
Si      -1.35780408       1.35775521      -1.35714339       0.00000000
Si      -1.35946566      -1.35860229       1.35686838       0.00000000
Si      -0.00074934      -2.71512357      -2.71380551       0.00000000
Si      -2.71417464       0.00009774      -2.71504305       0.00000000
Si       2.71454931      -2.71467559       0.00055002       0.00000000
Si       2.71515204      -0.00205254      -2.71425240       0.00000000
Si       2.71476108       2.71503801       0.00034376       0.00000000
Si      -2.71531494      -2.71516020       0.00006875       0.00000000
