10
Lattice="16.28999089631971 0.0 0.0 0.0 16.28999089631971 0.0 0.0 0.0 34.376317263855086" Properties=species:S:1:pos:R:3:initial_magmoms:R:1 pbc="T T T"
Si       1.35767376       1.35523840      -1.35676525       0.00000000
Si      -1.35747828       1.35729094       1.35748715       0.00000000
Si      -1.35822762      -1.35783263      -1.35631836       0.00000000
Si       1.35707103      -1.35738465       1.35803717       0.00000000
Si       2.71337643       0.00438364      -2.71397739       0.00000000
Si       2.71228500      -0.00119894       2.71511181       0.00000000
Si       2.71446786      -2.71454835       0.00010313       0.00000000
Si      -0.00164529       2.71467148       2.71469929       0.00000000
Si       2.71497285       2.71475293       0.00013751       0.00000000
Si       0.00009774      -2.71531398      -2.71463054       0.00000000
