10
Lattice="16.28999089631971 0.0 0.0 0.0 16.28999089631971 0.0 0.0 0.0 34.376317263855086" Properties=species:S:1:pos:R:3:initial_magmoms:R:1 pbc="T T T"
Si       1.59329232       1.00675458       1.45556284       0.00000000
Si      -1.27459476       1.44651942      -1.40482337       0.00000000
Si       1.44741537      -1.29380067      -1.39643554       0.00000000
Si      -1.71789453      -1.03227286       1.30602578       0.00000000
Si      -0.33516675      -2.31516575       2.90081278       0.00000000
Si       2.65227264       2.64450231      -0.09367552       0.00000000
Si      -2.62607832       0.08006535      -2.78070186       0.00000000
Si       0.09042579      -2.63404450      -2.77994558       0.00000000
Si      -2.85954660       2.64561003       0.03716082       0.00000000
Si      -2.73992913      -2.80635065       0.07040274       0.00000000
