10
Lattice="16.28999089631971 0.0 0.0 0.0 16.28999089631971 0.0 0.0 0.0 34.376317263855086" Properties=species:S:1:pos:R:3:initial_magmoms:R:1 pbc="T T T"
Si      -1.35658233       1.35221661      -1.35786529       0.00000000
Si       1.35832536       1.35604476       1.35800280       0.00000000
Si      -1.35692442      -1.35892809       1.35844969       0.00000000
Si       1.35892809      -1.35871632      -1.36312487       0.00000000
Si      -2.71362078       2.71454931       0.00092816       0.00000000
Si       2.71655298       2.71257822       0.00037814       0.00000000
Si       0.00065160       2.71366965       2.71586809       0.00000000
Si      -2.71329498      -2.71658556       0.00055002       0.00000000
Si      -2.71477737      -0.00141723       2.71542119       0.00000000
Si       2.71564074      -0.00164529       2.71593684       0.00000000
