10
Lattice="16.28999089631971 0.0 0.0 0.0 16.28999089631971 0.0 0.0 0.0 34.376317263855086" Properties=species:S:1:pos:R:3:initial_magmoms:R:1 pbc="T T T"
Si       1.52081811       1.30598559       1.15006034       0.00000000
Si       1.50175881      -1.20363552      -1.34115839       0.00000000
Si      -1.23035112       1.50604308      -1.31915754       0.00000000
Si      -1.05898032      -1.63774773       1.54923836       0.00000000
Si      -2.56541436       0.15152958      -2.69001708       0.00000000
Si       0.15104088      -2.56761351      -2.68829827       0.00000000
Si       1.00357803      -3.18247956       1.65982703       0.00000000
Si      -2.65227264      -2.64450231       0.09367552       0.00000000
Si       2.80593621      -0.08680941       2.55075854       0.00000000
Si       2.77175979      -2.60838738       0.02344466       0.00000000
