10
Lattice="16.28999089631971 0.0 0.0 0.0 16.28999089631971 0.0 0.0 0.0 34.376317263855086" Properties=species:S:1:pos:R:3:initial_magmoms:R:1 pbc="T T T"
Si      -0.83943414      -2.07747089       0.73998502       0.00000000
Si       1.39565878       0.67968396       1.86649757       0.00000000
Si      -0.66842172       2.62695798      -1.37519096       0.00000000
Si      -1.85694012       2.44306017       0.78082411       0.00000000
Si       1.12359949       1.45411056      -2.66939128       0.00000000
Si      -2.01187431      -0.74435526      -2.59146013       0.00000000
Si      -1.46281986      -2.83904468      -1.43397450       0.00000000
Si       1.01328361      -3.20899058       1.80922659       0.00000000
Si      -2.70903744      -1.71174831       2.19874486       0.00000000
Si       3.56457454      -0.17686053       1.58069270       0.00000000
