10
Lattice="16.28999089631971 0.0 0.0 0.0 16.28999089631971 0.0 0.0 0.0 34.376317263855086" Properties=species:S:1:pos:R:3:initial_magmoms:R:1 pbc="T T T"
Si       2.31218305       0.49363587       0.13905228       0.00000000
Si      -1.10833317       2.09101698      -0.13599279       0.00000000
Si      -1.06223247      -0.61763535       2.07275558       0.00000000
Si      -0.15138949      -1.53160209      -1.97223918       0.00000000
Si      -1.61957853       0.34463124      -2.92123232       0.00000000
Si      -3.12373197       0.88005096      -1.10083342       0.00000000
Si       1.20399064      -3.28934685      -0.89739426       0.00000000
Si       0.18506906      -2.36032000       2.92343241       0.00000000
Si       2.54117158       2.09477997       1.85003130       0.00000000
Si      -3.26279970      -1.21549464       1.54215683       0.00000000
