10
Lattice="16.28999089631971 0.0 0.0 0.0 16.28999089631971 0.0 0.0 0.0 34.376317263855086" Properties=species:S:1:pos:R:3:initial_magmoms:R:1 pbc="T T T"
Si      -1.23113304      -1.37927430      -1.55384479       0.00000000
Si       0.29113488      -1.46645838       1.96257943       0.00000000
Si       1.71313785       1.25389017      -1.30327567       0.00000000
Si      -1.47103587       1.67263344       1.27048064       0.00000000
Si       3.37965372       1.34948004       0.72650950       0.00000000
Si      -2.78935299      -2.66369193      -0.08545957       0.00000000
Si      -2.41606764      -0.00498474      -3.04416210       0.00000000
Si      -1.52389692      -3.10104585       1.92022778       0.00000000
Si      -0.60027021      -0.21045051       3.93096845       0.00000000
Si       0.31154625       2.69399852      -3.02676767       0.00000000
