10
Lattice="16.28999089631971 0.0 0.0 0.0 16.28999089631971 0.0 0.0 0.0 34.376317263855086" Properties=species:S:1:pos:R:3:initial_magmoms:R:1 pbc="T T T"
Si       1.13694426      -0.45831915      -2.01283763       0.00000000
Si      -2.34160605      -0.15661206       0.26294460       0.00000000
Si       0.24052185       2.35797328      -0.08119691       0.00000000
Si       0.93788046      -1.45013580       1.65295176       0.00000000
Si      -0.98456760      -2.68830612       2.10142545       0.00000000
Si      -2.45169387      -0.92703132       2.57671268       0.00000000
Si      -0.35693019       2.88172448      -2.35955736       0.00000000
Si      -0.04204449       0.80946639      -3.65375767       0.00000000
Si       2.43867816       2.75950061       0.67659505       0.00000000
Si       3.42541233       0.23869737      -1.58175837       0.00000000
