10
Lattice="16.28999089631971 0.0 0.0 0.0 16.28999089631971 0.0 0.0 0.0 34.376317263855086" Properties=species:S:1:pos:R:3:initial_magmoms:R:1 pbc="T T T"
Si      -2.24247977      -0.73806406      -0.29728656       0.00000000
Si       1.08074376       0.30880953      -2.10245674       0.00000000
Si       0.72420453      -1.47712507       1.72844220       0.00000000
Si       0.62117028       2.25210879       0.53816155       0.00000000
Si      -0.11536578       2.11589181      -3.08166668       0.00000000
Si       2.92653108       2.01714183       1.27543084       0.00000000
Si      -3.48978131       1.00462059      -1.14796338       0.00000000
Si      -2.25447247      -2.28127508      -2.09461893       0.00000000
Si      -3.04600031      -1.57941487       1.75546200       0.00000000
Si       0.11362275       3.71703591      -1.37068766       0.00000000
