10
Lattice="16.28999089631971 0.0 0.0 0.0 16.28999089631971 0.0 0.0 0.0 34.376317263855086" Properties=species:S:1:pos:R:3:initial_magmoms:R:1 pbc="T T T"
Si      -1.35246096      -1.34823208       1.36818507       0.00000000
Si       1.36427121       1.35941679       1.36495369       0.00000000
Si       1.22622975      -1.44269616      -1.41185333       0.00000000
Si      -1.32090723       1.29656997      -1.47940970       0.00000000
Si       2.31168132       0.40233042      -2.52123546       0.00000000
Si       0.55850265       2.21731335      -2.80205785       0.00000000
Si      -2.35053297      -0.53893836      -2.88789556       0.00000000
Si      -2.71953405      -2.70481508       0.01044697       0.00000000
Si       2.71726974      -2.71362797      -0.01666565       0.00000000
Si      -2.70321147       2.72963385      -0.03276409       0.00000000
