10
Lattice="16.28999089631971 0.0 0.0 0.0 16.28999089631971 0.0 0.0 0.0 34.376317263855086" Properties=species:S:1:pos:R:3:initial_magmoms:R:1 pbc="T T T"
Si      -1.19391039       0.13848129       1.96842340       0.00000000
Si       2.18913165       0.65018277       0.58711345       0.00000000
Si      -0.82699443       1.80300978      -1.31602929       0.00000000
Si      -0.20717622      -2.38232195      -0.28993002       0.00000000
Si      -0.79654842       0.67758255      -3.41587343       0.00000000
Si       1.74154761       0.66981222      -3.08458867       0.00000000
Si      -3.39206670      -0.26304603       1.21063144       0.00000000
Si      -0.19567548      -1.65443146       3.34705200       0.00000000
Si       3.68134452      -0.72890094      -0.50986982       0.00000000
Si       0.71184042       3.61185138      -0.94063969       0.00000000
