10
Lattice="16.28999089631971 0.0 0.0 0.0 16.28999089631971 0.0 0.0 0.0 34.376317263855086" Properties=species:S:1:pos:R:3:initial_magmoms:R:1 pbc="T T T"
Si       1.83523140       1.04872528       1.06147252       0.00000000
Si      -1.54955367      -1.17878140       1.38663828       0.00000000
Si       0.77209713      -1.69673824      -1.54085053       0.00000000
Si      -0.99823491       1.79291275      -1.37862860       0.00000000
Si      -2.49903261      -2.41672366      -0.40227189       0.00000000
Si       0.73979406       2.73515893       2.29001403       0.00000000
Si      -0.01150074      -0.72789049      -3.63698202       0.00000000
Si       0.19567548       1.65443146      -3.34705200       0.00000000
Si       2.76192063       2.54490802      -0.48790334       0.00000000
Si      -0.60404949      -3.61664506      -1.15219167       0.00000000
