10
Lattice="16.28999089631971 0.0 0.0 0.0 16.28999089631971 0.0 0.0 0.0 34.376317263855086" Properties=species:S:1:pos:R:3:initial_magmoms:R:1 pbc="T T T"
Si      -0.31778532       2.05954470       1.00286086       0.00000000
Si       0.08291610       0.52126371      -2.27433842       0.00000000
Si      -2.13434838      -1.05295302      -0.02543849       0.00000000
Si       2.06236287      -0.85235796       0.83778570       0.00000000
Si       0.32433390      -1.79460414      -2.83085693       0.00000000
Si       1.21300227       3.37118292      -0.29116757       0.00000000
Si       1.61520237       2.27528946      -2.34560057       0.00000000
Si      -2.52038880       2.64738564       0.66435708       0.00000000
Si      -2.08551096       1.40709762      -2.79043036       0.00000000
Si      -3.58862184       0.56777166       1.01386129       0.00000000
