10
Lattice="16.28999089631971 0.0 0.0 0.0 16.28999089631971 0.0 0.0 0.0 34.376317263855086" Properties=species:S:1:pos:R:3:initial_magmoms:R:1 pbc="T T T"
Si       0.52603668      -1.73733406       1.47670429       0.00000000
Si       2.23831116       0.74364664      -0.32609393       0.00000000
Si      -1.10998431      -0.34768887      -2.10503496       0.00000000
Si      -0.86053554       1.79423110       1.46608200       0.00000000
Si       2.38340619       1.40318965       1.84360293       0.00000000
Si       0.45944316      -1.87215010      -3.11208974       0.00000000
Si       2.27087487      -2.89454308       0.40780648       0.00000000
Si      -1.36287027      -3.16112893       1.68265292       0.00000000
Si      -1.44792036       1.84119517      -3.07193818       0.00000000
Si       3.74189445      -1.06796167      -0.07404663       0.00000000
