10
Lattice="16.28999089631971 0.0 0.0 0.0 16.28999089631971 0.0 0.0 0.0 34.376317263855086" Properties=species:S:1:pos:R:3:initial_magmoms:R:1 pbc="T T T"
Si       1.35729909      -1.35747828       1.35759028       0.00000000
Si      -1.35769005       1.35757602       1.35769341       0.00000000
Si       1.35645201       1.35905841      -1.35814030       0.00000000
Si      -1.35729909      -1.35951453      -1.35690275       0.00000000
Si      -0.00159642      -2.71036930      -2.71411489       0.00000000
Si      -0.00100998       2.71443528       2.71377113       0.00000000
Si       2.71389771       0.00011403       2.71480242       0.00000000
Si       2.71438641      -2.71437175      -0.00027501       0.00000000
Si       0.00296478       2.71337643      -2.71631498       0.00000000
Si      -2.71497285      -2.71475293      -0.00013751       0.00000000
