10
Lattice="16.28999089631971 0.0 0.0 0.0 16.28999089631971 0.0 0.0 0.0 34.376317263855086" Properties=species:S:1:pos:R:3:initial_magmoms:R:1 pbc="T T T"
Si      -1.52081811      -1.30598559      -1.15006034       0.00000000
Si      -0.89142138       1.56406806       1.49451123       0.00000000
Si       1.28212074       1.54833192      -1.20633440       0.00000000
Si       1.28511810      -1.39279500       1.40069821       0.00000000
Si      -0.01905930      -2.50962111      -2.49121873       0.00000000
Si       1.99604628       0.23851818       2.92312302       0.00000000
Si      -0.29631510       0.55651527       3.55509759       0.00000000
Si       2.71173114       0.20173536      -2.47963390       0.00000000
Si      -2.75116923       0.20005749      -2.46921787       0.00000000
Si      -2.71542897       2.65448808       0.50935418       0.00000000
