10
Lattice="16.28999089631971 0.0 0.0 0.0 16.28999089631971 0.0 0.0 0.0 34.376317263855086" Properties=species:S:1:pos:R:3:initial_magmoms:R:1 pbc="T T T"
Si      -0.71092818      -1.63131318      -1.52242481       0.00000000
Si       1.39111713      -0.88721856       1.72342325       0.00000000
Si      -2.29236138       0.31799709       0.63197457       0.00000000
Si       1.27439928       1.66822632      -1.25363624       0.00000000
Si       1.80429669      -1.99847349      -0.69990221       0.00000000
Si       1.53072243       2.76219756       0.92877986       0.00000000
Si      -2.88746766       1.32554988      -1.42861179       0.00000000
Si       2.72064177       1.03602771       1.97316734       0.00000000
Si      -1.99604628      -0.23851818      -2.92312302       0.00000000
Si      -2.41178337       1.90778706       2.27684789       0.00000000
