10
Lattice="16.28999089631971 0.0 0.0 0.0 16.28999089631971 0.0 0.0 0.0 34.376317263855086" Properties=species:S:1:pos:R:3:initial_magmoms:R:1 pbc="T T T"
Si       1.32620148      -1.37609775       1.28546873       0.00000000
Si      -1.32571278      -1.36234899      -1.34830867       0.00000000
Si       1.38939039       1.34972424      -1.34686486       0.00000000
Si      -1.41846804       1.22383512       1.50822739       0.00000000
Si       2.14593057       0.36484713       2.62779591       0.00000000
Si       0.28942443       2.16365409       2.93068581       0.00000000
Si      -2.68539021      -0.00926901      -2.70758339       0.00000000
Si      -2.69500131       2.70607851       0.04561740       0.00000000
Si       0.03046230       2.70604593      -2.70589895       0.00000000
Si      -2.70708849      -2.72437218       0.02258525       0.00000000
