10
Lattice="16.28999089631971 0.0 0.0 0.0 16.28999089631971 0.0 0.0 0.0 34.376317263855086" Properties=species:S:1:pos:R:3:initial_magmoms:R:1 pbc="T T T"
Si      -1.34573319      -1.35112518      -1.38522885       0.00000000
Si       1.37502261       1.36073628      -1.38502260       0.00000000
Si       1.18338705      -1.51187490       1.41572067       0.00000000
Si      -1.29586950       1.26180711       1.72235759       0.00000000
Si       2.32189515       0.10816560       2.71844631       0.00000000
Si      -2.69746110       2.70191546      -0.00113442       0.00000000
Si      -2.71086777      -2.71327869       0.00550021       0.00000000
Si       2.72134224       2.71365729      -0.02461346       0.00000000
Si       2.73111624      -2.71233387      -0.00763155       0.00000000
Si      -2.70285309      -0.00013032      -2.74766620       0.00000000
