10
Lattice="16.28999089631971 0.0 0.0 0.0 16.28999089631971 0.0 0.0 0.0 34.376317263855086" Properties=species:S:1:pos:R:3:initial_magmoms:R:1 pbc="T T T"
Si       1.34415306       1.34504901       1.37106237       0.00000000
Si      -1.33296183       1.31395140      -1.44598903       0.00000000
Si       1.38447081      -1.31810535      -1.39896908       0.00000000
Si      -1.36936998      -1.37399634       1.36652469       0.00000000
Si      -0.42195987      -2.33108271      -2.51966446       0.00000000
Si      -2.17513854      -0.51609978      -2.80048685       0.00000000
Si       2.69825931       2.68925094       0.00870409       0.00000000
Si      -2.72885193       2.68280010       0.00021657       0.00000000
Si       2.69245483      -2.72686455       0.00330013       0.00000000
Si      -0.01086543       2.70081684       2.72597129       0.00000000
