10
Lattice="16.28999089631971 0.0 0.0 0.0 16.28999089631971 0.0 0.0 0.0 34.376317263855086" Properties=species:S:1:pos:R:3:initial_magmoms:R:1 pbc="T T T"
Si      -1.25830476       1.39623219      -1.39922002       0.00000000
Si       1.74546440       0.87863373       1.33053610       0.00000000
Si       1.43418530      -1.33095816      -1.39296353       0.00000000
Si      -1.57936437      -0.97171479       1.53115640       0.00000000
Si       0.68446737      -1.29850848       2.65498759       0.00000000
Si      -2.56218894      -2.63507040       0.02860111       0.00000000
Si       0.58822443       2.45043954       2.79269920       0.00000000
Si      -2.67854841       2.66603769       0.02234462       0.00000000
Si      -2.61118926       0.03345966      -2.75976667       0.00000000
Si       2.58694064      -2.82752046       0.06033047       0.00000000
