10
Lattice="16.28999089631971 0.0 0.0 0.0 16.28999089631971 0.0 0.0 0.0 34.376317263855086" Properties=species:S:1:pos:R:3:initial_magmoms:R:1 pbc="T T T"
Si       1.97351721      -0.53030466      -1.13905991       0.00000000
Si      -1.18991934       1.72616985      -1.04438748       0.00000000
Si      -1.32952464      -1.92324627      -0.24974408       0.00000000
Si       0.77382387       0.74148822       2.11613852       0.00000000
Si       2.76397384      -1.83630654       0.66270701       0.00000000
Si      -2.72064177      -1.03602771      -1.97316734       0.00000000
Si      -1.44624249       0.63219861      -3.22680358       0.00000000
Si      -1.35405738       1.00908405       3.17066702       0.00000000
Si       3.11185168       1.53034776      -0.97175028       0.00000000
Si       0.73497222      -3.52072512      -1.11919039       0.00000000
