10
Lattice="16.28999089631971 0.0 0.0 0.0 16.28999089631971 0.0 0.0 0.0 34.376317263855086" Properties=species:S:1:pos:R:3:initial_magmoms:R:1 pbc="T T T"
Si       1.32952464       1.92324627       0.24974408       0.00000000
Si      -0.83435751      -0.58916043       2.11864799       0.00000000
Si      -1.39111713       0.88721856      -1.72342325       0.00000000
Si       0.41317956      -1.11125493      -2.42332546       0.00000000
Si       2.06449686      -1.59747885      -0.86944630       0.00000000
Si       2.66326839      -1.75040937       1.45504719       0.00000000
Si       0.19534968      -3.53119959      -0.02530098       0.00000000
Si       1.15911495      -1.21498965       3.27544609       0.00000000
Si       3.30304185       1.39294161      -0.88931582       0.00000000
Si       0.13960530       3.64941612      -0.79464339       0.00000000
