10
Lattice="16.28999089631971 0.0 0.0 0.0 16.28999089631971 0.0 0.0 0.0 34.376317263855086" Properties=species:S:1:pos:R:3:initial_magmoms:R:1 pbc="T T T"
Si      -1.35547461       1.35237951      -1.35985912       0.00000000
Si       1.34480466       1.35643572       1.37302526       0.00000000
Si       1.35883035      -1.36124127      -1.35872470       0.00000000
Si      -1.35355239      -1.36023129       1.38034741       0.00000000
Si       2.52395631      -0.19259667       2.72638725       0.00000000
Si      -2.70964602       2.71283886       0.00295636       0.00000000
Si       0.00210141       2.71215105      -2.71576496       0.00000000
Si      -2.71246419      -0.00280188      -2.71617747       0.00000000
Si      -2.71114470      -2.71753038       0.00099691       0.00000000
Si       2.71791975      -0.00312768      -2.71566183       0.00000000
