10
Lattice="16.28999089631971 0.0 0.0 0.0 16.28999089631971 0.0 0.0 0.0 34.376317263855086" Properties=species:S:1:pos:R:3:initial_magmoms:R:1 pbc="T T T"
Si       1.57705119       1.71693342      -0.30062106       0.00000000
Si      -0.22898853      -1.60114410      -1.71097902       0.00000000
Si      -1.81081432       1.58447943       0.39450284       0.00000000
Si       0.50754753      -1.46492712       1.90884921       0.00000000
Si      -0.91460205       1.93536603       2.58547864       0.00000000
Si       0.90306873       3.10651929       1.56893600       0.00000000
Si       0.96712101      -3.40822638      -0.73176907       0.00000000
Si      -0.60097068      -0.24267213       3.59188027       0.00000000
Si       1.31512428       2.37192174      -2.59864478       0.00000000
Si      -2.54117158      -2.09477997      -1.85003130       0.00000000
