10
Lattice="16.28999089631971 0.0 0.0 0.0 16.28999089631971 0.0 0.0 0.0 34.376317263855086" Properties=species:S:1:pos:R:3:initial_magmoms:R:1 pbc="T T T"
Si      -1.74546440      -0.87863373      -1.33053610       0.00000000
Si      -1.15723997       1.57180581       1.46216310       0.00000000
Si       1.14464943       1.74778668      -1.26088965       0.00000000
Si       1.77523533      -1.94149107       0.22210551       0.00000000
Si      -1.06099702      -2.17714221       1.32445149       0.00000000
Si      -0.31127909      -2.20959189      -2.72349963       0.00000000
Si       2.44837071       0.50629320      -2.72508095       0.00000000
Si      -0.58733758       0.40361733       3.67355844       0.00000000
Si      -3.32482877      -1.85034852       0.20062030       0.00000000
Si       2.04753897       3.28673556       0.23750611       0.00000000
