10
Lattice="16.28999089631971 0.0 0.0 0.0 16.28999089631971 0.0 0.0 0.0 34.376317263855086" Properties=species:S:1:pos:R:3:initial_magmoms:R:1 pbc="T T T"
Si      -0.50512032      -0.41078493       2.28320752       0.00000000
Si      -2.12385925      -0.03186324      -1.13476287       0.00000000
Si       0.48109257       2.32288884      -0.48264376       0.00000000
Si       1.64043558      -1.71978417      -0.46091792       0.00000000
Si       2.74227489       0.21455559      -2.37870498       0.00000000
Si      -3.21286760       1.82866653      -0.15304345       0.00000000
Si       1.57390722      -1.11379617       3.21490936       0.00000000
Si      -1.61711156       3.33676215      -0.97896931       0.00000000
Si      -2.39014862      -1.96019199       2.34697562       0.00000000
Si      -1.60686352       1.35865116       3.32556679       0.00000000
