10
Lattice="16.28999089631971 0.0 0.0 0.0 16.28999089631971 0.0 0.0 0.0 34.376317263855086" Properties=species:S:1:pos:R:3:initial_magmoms:R:1 pbc="T T T"
Si      -1.68639034      -0.90544707       1.51469499       0.00000000
Si       1.79169475      -1.71782937       0.06682760       0.00000000
Si       0.98123629       1.88968887       1.35488628       0.00000000
Si      -1.54610086      -0.65578653      -1.94518500       0.00000000
Si      -0.37553404      -2.27853117       2.88193127       0.00000000
Si       2.33138245       0.47304531       2.87481881       0.00000000
Si      -3.28295695      -2.08679787      -0.02299777       0.00000000
Si       1.01662795      -3.55449429       1.44233624       0.00000000
Si       2.80807672      -1.85953608      -2.17351263       0.00000000
Si       3.60530932      -0.91197936       1.51132611       0.00000000
