10
Lattice="16.28999089631971 0.0 0.0 0.0 16.28999089631971 0.0 0.0 0.0 34.376317263855086" Properties=species:S:1:pos:R:3:initial_magmoms:R:1 pbc="T T T"
Si      -1.35828042      -1.33781625      -1.37598162       0.00000000
Si       1.35264341       1.37805255      -1.37498471       0.00000000
Si      -1.55491701       1.18675908       1.34848055       0.00000000
Si       1.42519907      -1.46326554       1.45185019       0.00000000
Si      -0.31110805       2.36014407       2.88345273       0.00000000
Si       2.32808861       0.07568334       2.95024595       0.00000000
Si      -2.72321952      -2.69345376      -0.01701629       0.00000000
Si       2.72892035      -2.70475902      -0.01234110       0.00000000
Si      -0.00692325      -2.69770545      -2.73642514       0.00000000
Si       2.70137396       2.73439053      -0.00845658       0.00000000
