10
Lattice="16.28999089631971 0.0 0.0 0.0 16.28999089631971 0.0 0.0 0.0 34.376317263855086" Properties=species:S:1:pos:R:3:initial_magmoms:R:1 pbc="T T T"
Si       0.01340341      -2.21824188      -0.72516882       0.00000000
Si      -0.33116918      -0.12556332       2.36595136       0.00000000
Si      -1.85271776       1.13151969      -1.06924157       0.00000000
Si       2.21425083       0.79312752      -0.80595321       0.00000000
Si      -1.01328361       3.20899058      -1.80922659       0.00000000
Si       0.55211697       1.86514214       3.31992907       0.00000000
Si       0.10373472      -2.31298452      -3.08672000       0.00000000
Si       2.11160754      -3.23211519      -0.22884327       0.00000000
Si       0.38237517       3.88867454       0.05727098       0.00000000
Si       2.55129093       3.03213005      -0.22853388       0.00000000
