10
Lattice="16.28999089631971 0.0 0.0 0.0 16.28999089631971 0.0 0.0 0.0 34.376317263855086" Properties=species:S:1:pos:R:3:initial_magmoms:R:1 pbc="T T T"
Si      -0.45109942       2.27483334      -0.47817484       0.00000000
Si       1.81260948      -0.76681917       1.32070447       0.00000000
Si      -2.10082586      -0.88060482       0.69759900       0.00000000
Si       0.60446163      -0.84725919      -2.15625571       0.00000000
Si      -2.13531179       1.59521454      -2.05336733       0.00000000
Si      -0.30347130       0.89831205      -3.45564685       0.00000000
Si      -1.39266419      -3.10868586       1.34803366       0.00000000
Si      -3.52854662      -0.01290168      -1.06494453       0.00000000
Si       2.23310325      -2.99659437       0.54974637       0.00000000
Si       1.12820142      -0.74093436       3.54045327       0.00000000
