10
Lattice="10.86 0.0 0.0 0.0 10.86 0.0 0.0 0.0 10.86" Properties=species:S:1:pos:R:3:initial_magmoms:R:1 pbc="T T T"
Si      -1.12948344      -1.29602154       1.41553584       0.00000000
Si       1.47276804       1.43809206       1.21827480       0.00000000
Si      -1.24223196       1.43809206      -1.49672520       0.00000000
Si       1.47276804      -1.27690794      -1.49672520       0.00000000
Si      -2.62656702       0.00571236       2.54661570       0.00000000
Si       0.11526804       2.79559206       2.57577480       0.00000000
Si      -2.59973196       2.79559206      -0.13922520       0.00000000
Si      -2.57139822      -2.86016562      -0.14048496       0.00000000
Si      -2.59973196       0.08059206      -2.85422520       0.00000000
Si       0.11526804      -2.63440794      -2.85422520       0.00000000
