10
Lattice="16.290000149 0.0 0.0 0.0 16.290000149 0.0 0.0 0.0 29.1751946751" Properties=species:S:1:pos:R:3:initial_magmoms:R:1 pbc="T T T"
Si       1.22414464      -1.53381754       1.23974155       0.00000000
Si      -1.38517129      -1.35262387      -1.29479514       0.00000000
Si      -1.06209172       1.46080576       1.48233329       0.00000000
Si       1.37658646       1.31862664      -1.35810531       0.00000000
Si       0.75794113       2.21793239       2.86048196       0.00000000
Si      -2.38466054       0.10463067       2.86946792       0.00000000
Si      -0.01809819       2.60195285      -2.71831124       0.00000000
Si      -0.02441871      -2.70032816      -2.62909349       0.00000000
Si      -2.50533686       2.81533557       0.19719514       0.00000000
Si      -2.73983142       0.00490329      -2.59915974       0.00000000
