10
Lattice="16.290000149 0.0 0.0 0.0 16.290000149 0.0 0.0 0.0 29.1751946751" Properties=species:S:1:pos:R:3:initial_magmoms:R:1 pbc="T T T"
Si      -0.68769865       2.05029851       0.76564463       0.00000000
Si       2.05711751      -0.61145004       0.89077704       0.00000000
Si      -1.24253605      -1.78694134       0.84266715       0.00000000
Si      -0.63827479      -0.67650579      -2.14682753       0.00000000
Si      -0.68178538      -2.82174731      -1.16659933       0.00000000
H        0.68833396       2.31141093      -2.13941703       0.00000000
Si      -1.30111489       1.53779882       2.94815342       0.00000000
Si      -3.53033625       0.78943621      -0.77498070       0.00000000
Si       1.53469720      -1.86684379       2.82258338       0.00000000
Si       1.07807221       3.53405689       0.43330999       0.00000000
