10
Lattice="16.290000149 0.0 0.0 0.0 16.290000149 0.0 0.0 0.0 29.1751946751" Properties=species:S:1:pos:R:3:initial_magmoms:R:1 pbc="T T T"
Si       1.08273115      -1.42017850      -1.49805872       0.00000000
Si      -1.54512280       1.32429556      -1.18547569       0.00000000
Si      -1.05541282      -1.76270834       1.18147868       0.00000000
Si       2.12719709       0.96989032       0.68004461       0.00000000
Si       0.21916566       0.80757676       3.38770690       0.00000000
Si       2.37770471      -2.71415837      -0.07147923       0.00000000
Si      -0.20140956       2.70267392      -2.49873872       0.00000000
Si      -1.40072824      -0.87982291       3.31631520       0.00000000
Si       2.49785975      -0.09383040      -2.73680831       0.00000000
Si       0.54635031      -3.53927946       1.09255269       0.00000000
