10
Lattice="16.290000149 0.0 0.0 0.0 16.290000149 0.0 0.0 0.0 29.1751946751" Properties=species:S:1:pos:R:3:initial_magmoms:R:1 pbc="T T T"
Si       1.38359116      -1.34359921      -1.33587381       0.00000000
Si      -1.29674917       1.30344436      -1.46091870       0.00000000
Si       1.38776140       1.35876520       1.33056393       0.00000000
Si      -1.34939845      -1.39110085       1.34529740       0.00000000
Si      -2.77912290       0.05279589       2.46661683       0.00000000
Si      -2.65896785       2.67312386      -0.19871225       0.00000000
Si       2.71033022      -0.01518228       2.66529991       0.00000000
Si       0.01821222      -2.68323995      -2.70839167       0.00000000
Si      -2.70927137      -2.69922044      -0.04422960       0.00000000
Si       2.72792343       0.02798622      -2.69899726       0.00000000
