10
Lattice="16.290000149 0.0 0.0 0.0 16.290000149 0.0 0.0 0.0 29.1751946751" Properties=species:S:1:pos:R:3:initial_magmoms:R:1 pbc="T T T"
Si       1.34690608       1.35703846       1.36248159       0.00000000
Si      -1.35254242       1.36721971      -1.35629645       0.00000000
Si      -1.36026388      -1.34438113       1.37248868       0.00000000
Si       1.37795482      -1.34866540      -1.35081151       0.00000000
Si      -0.05067819      -2.75248875      -2.59341806       0.00000000
Si       2.67820634      -2.69804756       0.06803655       0.00000000
Si      -0.02300148       2.72044631       2.69893891       0.00000000
Si       2.69278589      -0.00211770       2.73167348       0.00000000
Si      -2.67302612       0.02796993      -2.75205235       0.00000000
Si       2.69829191       2.73263124       0.01555038       0.00000000
