10
Lattice="16.290000149 0.0 0.0 0.0 16.290000149 0.0 0.0 0.0 29.1751946751" Properties=species:S:1:pos:R:3:initial_magmoms:R:1 pbc="T T T"
Si      -1.41301090      -1.28399899       1.38159134       0.00000000
Si       1.32367654      -1.39436211      -1.36490313       0.00000000
Si       1.39975084       1.37111302       1.31396324       0.00000000
Si      -1.34750881       1.33358086      -1.40732387       0.00000000
Si       0.00654858       2.72424189       2.62678865       0.00000000
Si      -2.64227060      -2.71736750      -0.04536743       0.00000000
Si       2.58481577      -2.78625792       0.06596512       0.00000000
Si       2.69052158      -0.03531672      -2.74217655       0.00000000
Si      -2.71779104       2.72075582      -0.09639484       0.00000000
Si       2.73989657       2.71935488      -0.05893389       0.00000000
