10
Lattice="16.290000149 0.0 0.0 0.0 16.290000149 0.0 0.0 0.0 29.1751946751" Properties=species:S:1:pos:R:3:initial_magmoms:R:1 pbc="T T T"
Si       1.41877756      -1.33086043      -1.30208894       0.00000000
Si       1.37340991       1.32651100       1.36394035       0.00000000
Si      -1.35138583      -1.37559277       1.34693121       0.00000000
Si      -1.35151615       1.31893615      -1.40802407       0.00000000
Si       0.10687869      -2.69065190      -2.64796109       0.00000000
Si       0.00413766       2.70565499       2.68642275       0.00000000
Si       2.75348244       2.64438830       0.00055433       0.00000000
Si      -2.72129339      -0.01218492       2.68338853       0.00000000
Si      -2.71438643       2.69247638      -0.05826286       0.00000000
Si       0.01664838       2.66880701      -2.75798075       0.00000000
