10
Lattice="16.290000149 0.0 0.0 0.0 16.290000149 0.0 0.0 0.0 29.1751946751" Properties=species:S:1:pos:R:3:initial_magmoms:R:1 pbc="T T T"
Si      -1.43251003       1.31979952      -1.28330011       0.00000000
Si      -1.38007252      -1.31787730       1.36338602       0.00000000
Si       1.33542163       1.40434462       1.33838288       0.00000000
Si       1.34618932      -1.27909081      -1.46071447       0.00000000
Si      -0.07644897       2.65963574      -2.59936689       0.00000000
Si       2.68579748      -2.61563645      -0.03903641       0.00000000
Si      -0.02415807      -2.68814324       2.70243993       0.00000000
Si      -2.75348244      -2.64438830      -0.00055433       0.00000000
Si       2.69821046       0.06470388       2.70252746       0.00000000
Si      -2.74934478       0.06126669       2.68586842       0.00000000
