10
Lattice="16.290000149 0.0 0.0 0.0 16.290000149 0.0 0.0 0.0 29.1751946751" Properties=species:S:1:pos:R:3:initial_magmoms:R:1 pbc="T T T"
Si      -2.19427931       0.72306424       0.46613209       0.00000000
Si      -0.26702568      -2.03036933       1.19670814       0.00000000
Si       1.57506382       1.31087260       1.20554822       0.00000000
Si      -0.28624788       0.88537780      -2.24153021       0.00000000
H        2.24821550      -0.95376322      -1.63360668       0.00000000
H        0.80829352      -1.86414617      -2.18317982       0.00000000
H        1.61570737      -2.61314408      -0.52842113       0.00000000
H        1.04516641      -2.48585402       1.80425239       0.00000000
Si      -2.15076872       2.86830576      -0.51409611       0.00000000
Si      -2.41344497      -0.08451252      -2.92157482       0.00000000
