10
Lattice="16.290000149 0.0 0.0 0.0 16.290000149 0.0 0.0 0.0 29.1751946751" Properties=species:S:1:pos:R:3:initial_magmoms:R:1 pbc="T T T"
Si       0.91623106       0.07195293      -1.21068305       0.00000000
H       -1.25688754      -1.74939941      -0.42073548       0.00000000
H        1.90184123       0.42186213       1.24513896       0.00000000
Si      -1.79525576      -2.01091907       0.96365668       0.00000000
Si       0.02513547       1.49307625      -2.80160642       0.00000000
Si       1.18542331       2.94320392       0.25469945       0.00000000
Si       1.25540515      -2.04946121      -2.14224702       0.00000000
Si       2.80236873       1.41317380      -0.82169018       0.00000000
H       -2.81784423      -0.87027697      -1.61315486       0.00000000
Si      -2.64375299      -0.13703148       2.08200024       0.00000000
