10
Lattice="16.290000149 0.0 0.0 0.0 16.290000149 0.0 0.0 0.0 29.1751946751" Properties=species:S:1:pos:R:3:initial_magmoms:R:1 pbc="T T T"
Si       1.42565683      -1.21733542       1.38354608       0.00000000
Si      -1.43309159       1.24460488       1.37047559       0.00000000
Si      -1.35882613      -1.41123529      -1.31288376       0.00000000
Si       1.36732234       1.42688998      -1.30033843       0.00000000
H       -1.19159396      -1.44223516       3.06993068       0.00000000
Si      -0.05607670      -2.41127840       2.77756606       0.00000000
Si       2.57310815      -2.64166787      -0.08049436       0.00000000
Si      -0.02326212       2.68421735       2.55282953       0.00000000
Si       2.56556588       0.02489112      -2.77607812       0.00000000
Si      -2.72539359       2.65605194       0.00840246       0.00000000
