10
Lattice="16.290000149 0.0 0.0 0.0 16.290000149 0.0 0.0 0.0 29.1751946751" Properties=species:S:1:pos:R:3:initial_magmoms:R:1 pbc="T T T"
Si      -1.42565683       1.21733542      -1.38354608       0.00000000
Si       1.14745132      -1.42433245      -1.46404044       0.00000000
Si      -1.48173353      -1.19394298       1.39401998       0.00000000
Si       1.49507992       1.34195392       1.30900346       0.00000000
H        0.03725523      -2.66580965       0.75639610       0.00000000
H       -2.61725079      -0.22489974       1.68638460       0.00000000
H        2.05478804      -2.32298660      -0.65635435       0.00000000
Si      -0.19570806      -1.02969091       3.42067487       0.00000000
Si      -0.05833449       2.64422540      -2.68388451       0.00000000
Si      -2.85874842       2.46194030      -0.01307049       0.00000000
