10
Lattice="16.290000149 0.0 0.0 0.0 16.290000149 0.0 0.0 0.0 29.1751946751" Properties=species:S:1:pos:R:3:initial_magmoms:R:1 pbc="T T T"
Si       0.61341625       0.51249969      -2.18250879       0.00000000
Si      -2.30026205      -0.04947273       0.45148614       0.00000000
Si       0.77142925       2.04424841       0.87977800       0.00000000
Si       1.21886668      -1.87461249       0.95081959       0.00000000
Si       1.69733657       0.99931006       2.71390578       0.00000000
Si       3.02956536      -0.54851688       1.55646746       0.00000000
Si       1.30111489      -1.53779882      -2.94815342       0.00000000
Si      -0.24247665      -0.02832831       3.61483580       0.00000000
Si      -2.44644851       0.35424234       2.81132176       0.00000000
Si      -3.17312913       2.02701359      -0.33700267       0.00000000
