10
Lattice="16.290000149 0.0 0.0 0.0 16.290000149 0.0 0.0 0.0 29.1751946751" Properties=species:S:1:pos:R:3:initial_magmoms:R:1 pbc="T T T"
Si       1.37702629       1.34017831       1.33260619       0.00000000
Si       1.37862271      -1.36599796      -1.31197933       0.00000000
Si      -1.35368272      -1.35128809       1.36213149       0.00000000
Si      -1.35068536       1.37665162      -1.34220483       0.00000000
Si      -0.05750370       2.66181860       2.61514775       0.00000000
Si       0.00011403      -2.70140330      -2.65654735       0.00000000
Si       2.73494442      -0.01040931      -2.66967619       0.00000000
Si      -2.71567334       0.02116071      -2.68928192       0.00000000
Si       0.00920385      -2.67763619       2.74264335       0.00000000
Si       2.72626185       2.69808014      -0.02062686       0.00000000
