10
Lattice="16.290000149 0.0 0.0 0.0 16.290000149 0.0 0.0 0.0 29.1751946751" Properties=species:S:1:pos:R:3:initial_magmoms:R:1 pbc="T T T"
Si       1.53313336      -1.28335879      -1.18600084       0.00000000
Si       1.39479868       1.32093982       1.36705334       0.00000000
Si      -1.21722139      -1.43470918       1.44234869       0.00000000
Si      -1.46763127       1.20953251      -1.45776778       0.00000000
H        0.35552925      -1.79584220      -2.26484119       0.00000000
Si      -2.66993102       2.68105709      -0.02646190       0.00000000
Si       2.85336180       2.49919553      -0.05123164       0.00000000
Si      -2.64828161      -0.06364503       2.72748392       0.00000000
Si      -0.13519071       2.52837092      -2.86523752       0.00000000
Si       0.06437808       2.76187179       2.67935944       0.00000000
