10
Lattice="16.290000149 0.0 0.0 0.0 16.290000149 0.0 0.0 0.0 29.1751946751" Properties=species:S:1:pos:R:3:initial_magmoms:R:1 pbc="T T T"
Si       1.24944301      -1.37046142       1.41344774       0.00000000
Si      -1.28741500       1.44910954       1.32822991       0.00000000
Si       1.90768934       0.79047226      -1.12197879       0.00000000
Si      -1.83878264      -0.88166368      -1.18616714       0.00000000
H        0.69517576      -1.82799866      -1.92174965       0.00000000
Si       1.25630110       1.21419145      -3.25426832       0.00000000
Si       2.66905136       0.05882319       2.64930315       0.00000000
Si      -2.71463078       0.05846481       2.60982911       0.00000000
Si       2.74734111      -2.60660365       0.13361364       0.00000000
Si      -3.47144790       0.85380778      -1.26875132       0.00000000
