10
Lattice="16.290000149 0.0 0.0 0.0 16.290000149 0.0 0.0 0.0 29.1751946751" Properties=species:S:1:pos:R:3:initial_magmoms:R:1 pbc="T T T"
Si       0.84489715      -0.99439048      -1.93656190       0.00000000
Si      -1.33244056      -1.31883841       1.40746974       0.00000000
Si       1.59378103       1.13314870       1.33934566       0.00000000
Si      -1.50754177       1.32268285      -1.28108280       0.00000000
H        1.31571073       0.29949165      -2.57401073       0.00000000
H        0.68624884       1.87888862       2.31519757       0.00000000
Si      -1.05401188      -1.67637134      -3.20116071       0.00000000
Si      -2.89906617      -2.44249004      -0.05563710       0.00000000
Si      -2.54042552       2.81026938       0.18920114       0.00000000
Si      -2.53474031       0.15268617       2.83877562       0.00000000
