10
Lattice="16.290000149 0.0 0.0 0.0 16.290000149 0.0 0.0 0.0 29.1751946751" Properties=species:S:1:pos:R:3:initial_magmoms:R:1 pbc="T T T"
Si      -1.33358086      -1.33999424       1.32889511       0.00000000
Si       1.49789809      -1.23614223      -1.27983410       0.00000000
Si      -1.24944301       1.37046142      -1.41344774       0.00000000
Si       1.41960835       1.42928461       1.23585541       0.00000000
Si       0.65824633       2.16093368      -2.53542653       0.00000000
H       -0.55426726      -0.45753723      -3.33519739       0.00000000
Si       2.36325548       0.49181139      -2.66196227       0.00000000
Si       0.10047672      -2.68643279       2.59069310       0.00000000
Si      -2.66382227       0.07954407       2.61522944       0.00000000
Si      -2.69418683      -2.62259139      -0.08120624       0.00000000
