10
Lattice="16.290000149 0.0 0.0 0.0 16.290000149 0.0 0.0 0.0 29.1751946751" Properties=species:S:1:pos:R:3:initial_magmoms:R:1 pbc="T T T"
Si      -1.15036723      -0.12997791       2.05790153       0.00000000
Si      -1.52803459       0.99742042      -1.50441891       0.00000000
Si       1.00002682      -1.77143978      -1.26197305       0.00000000
Si       1.52606350       1.84803536       0.42741660       0.00000000
H       -2.05793201      -2.79930621      -0.90571474       0.00000000
Si       2.29843757      -0.47003166      -2.76070280       0.00000000
H        0.75960271      -2.98602219       1.93962529       0.00000000
Si      -2.55847484       2.61990932      -0.18645867       0.00000000
Si      -0.23771997       2.43588656      -2.78509326       0.00000000
Si       0.40772241       0.65928889       3.64897077       0.00000000
