10
Lattice="16.290000149 0.0 0.0 0.0 16.290000149 0.0 0.0 0.0 29.1751946751" Properties=species:S:1:pos:R:3:initial_magmoms:R:1 pbc="T T T"
Si      -0.52605460      -0.88039306      -2.10528205       0.00000000
Si      -1.42393661       1.93961774       0.00405535       0.00000000
Si       2.05521158       1.02148075       0.72567462       0.00000000
Si      -0.68753086      -1.75254338       1.50155974       0.00000000
H        1.42386004       1.60433695      -2.36392015       0.00000000
Si      -1.94743694      -0.32179266       2.82859085       0.00000000
H        2.83136493      -0.42626043      -1.93212727       0.00000000
Si       0.19580580       1.28661679      -3.23765888       0.00000000
Si       1.03987216       2.27401886       2.55218768       0.00000000
Si      -3.09348732       1.17406918       1.45301222       0.00000000
