10
Lattice="16.290000149 0.0 0.0 0.0 16.290000149 0.0 0.0 0.0 29.1751946751" Properties=species:S:1:pos:R:3:initial_magmoms:R:1 pbc="T T T"
Si      -1.34788488      -1.35358498       1.35766768       0.00000000
Si      -1.36844286       1.35679411      -1.34080442       0.00000000
Si       1.33034753      -1.34934958      -1.39136503       0.00000000
Si       1.31425463       1.36637263       1.39439925       0.00000000
Si       0.02993213       2.69164559      -2.67530700       0.00000000
Si       2.68131633      -2.70850574      -0.03150921       0.00000000
Si      -2.69187506       0.01143558       2.70880012       0.00000000
Si       2.68996632       2.71454933       0.04364609       0.00000000
Si      -2.71860695      -2.70153362       0.00195474       0.00000000
Si       2.70324267       0.01713708       2.72464226       0.00000000
