10
Lattice="16.290000149 0.0 0.0 0.0 16.290000149 0.0 0.0 0.0 29.1751946751" Properties=species:S:1:pos:R:3:initial_magmoms:R:1 pbc="T T T"
Si       1.35314515       1.39859425      -1.31960573       0.00000000
Si      -1.35141841       1.36933741       1.35898057       0.00000000
Si       1.37671678      -1.34708527       1.35947655       0.00000000
Si      -1.36251190      -1.36754551      -1.36385283       0.00000000
Si       2.73686664       0.04264722      -2.64215231       0.00000000
Si      -2.70784600      -2.69651630       0.01797192       0.00000000
Si       2.69074964       2.72285723       0.08487064       0.00000000
Si      -2.69824956       0.02171457       2.72750142       0.00000000
Si       0.02156796      -2.69104286       2.73549543       0.00000000
Si      -2.71693908       2.71775846      -0.01263286       0.00000000
