10
Lattice="16.290000149 0.0 0.0 0.0 16.290000149 0.0 0.0 0.0 29.1751946751" Properties=species:S:1:pos:R:3:initial_magmoms:R:1 pbc="T T T"
H        1.28075239       0.03867246       0.81991050       0.00000000
Si      -1.36064018      -1.38982209       1.33345227       0.00000000
Si       0.60709573      -1.51482666      -1.75935176       0.00000000
Si      -0.79997096       2.26404938       0.21612984       0.00000000
Si       0.50859009       2.00375147      -1.68655965       0.00000000
Si       2.72054405       1.92192680      -0.88453355       0.00000000
Si       0.47974050      -2.56381796       2.27050118       0.00000000
H       -3.05623209       0.94560193      -1.49420760       0.00000000
Si       3.59341113      -0.15455952      -0.09604474       0.00000000
Si       2.67973760      -2.23066954      -0.91429225       0.00000000
