10
Lattice="16.290000149 0.0 0.0 0.0 16.290000149 0.0 0.0 0.0 29.1751946751" Properties=species:S:1:pos:R:3:initial_magmoms:R:1 pbc="T T T"
Si       1.41490054      -0.33790347      -0.46817435       0.00000000
Si      -1.94846321       0.12737151       1.07986148       0.00000000
Si      -1.16996410       2.00178038      -0.19699091       0.00000000
Si       0.72894493       2.68376123       1.06760790       0.00000000
Si       1.11074995      -0.02223585      -2.80464064       0.00000000
Si       2.65375505       1.17766927       0.95919288       0.00000000
Si      -0.55154683       1.66861730      -2.53027711       0.00000000
Si      -0.91981486      -1.20897865       2.69584634       0.00000000
Si       1.92702557      -2.42141078       0.46420652       0.00000000
H        1.61779249       2.42264882      -1.42094868       0.00000000
