10
Lattice="16.290000149 0.0 0.0 0.0 16.290000149 0.0 0.0 0.0 29.1751946751" Properties=species:S:1:pos:R:3:initial_magmoms:R:1 pbc="T T T"
H       -1.12096378       0.06392196       1.01348791       0.00000000
Si       0.22102272      -2.13514661      -0.91032442       0.00000000
Si       2.06156468       0.69379111       0.90323485       0.00000000
Si      -0.22784823       1.51412293      -1.83678273       0.00000000
H       -0.45072801       0.99385291       2.62474639       0.00000000
H       -2.01168470       1.87297535       1.43232701       0.00000000
Si       2.34618356      -1.54870660      -1.91193803       0.00000000
H        2.43455681      -2.36923391       0.66067228       0.00000000
Si       3.31929930       0.44808903      -1.03481498       0.00000000
Si       1.72239059       2.81520525       1.83479882       0.00000000
