10
Lattice="16.290000149 0.0 0.0 0.0 16.290000149 0.0 0.0 0.0 29.1751946751" Properties=species:S:1:pos:R:3:initial_magmoms:R:1 pbc="T T T"
Si       1.41804451      -1.37301895       1.25505852       0.00000000
Si       1.37616292       1.32043483      -1.36373612       0.00000000
Si      -1.33895656       1.33015996       1.40840335       0.00000000
Si      -1.35648460      -1.38173410      -1.35069481       0.00000000
Si      -2.68597993       2.68345172       0.02246490       0.00000000
Si       0.11510514      -2.61009785       2.75723095       0.00000000
Si       0.00268785       2.67274919      -2.70909188       0.00000000
Si      -2.80334450      -0.05238864       2.62515484       0.00000000
Si       0.07356564       2.72696231       2.70471560       0.00000000
Si       2.78511762       2.64588698      -0.00773143       0.00000000
