10
Lattice="16.290000149 0.0 0.0 0.0 16.290000149 0.0 0.0 0.0 29.1751946751" Properties=species:S:1:pos:R:3:initial_magmoms:R:1 pbc="T T T"
Si      -1.49626909       1.26104149       1.27726085       0.00000000
Si       1.29495662       1.36094806      -1.44315100       0.00000000
Si      -1.42752529      -1.27050598      -1.40326851       0.00000000
Si       1.28683931      -1.34459290       1.50546922       0.00000000
H        1.46218878       1.32994819       2.93966344       0.00000000
Si      -2.88567579      -0.55907281       2.03572838       0.00000000
Si      -2.77628844      -2.28990161       0.23010476       0.00000000
Si       2.50439530      -2.63037239      -0.10187978       0.00000000
Si       2.59770605       0.36090495       2.64729881       0.00000000
Si       2.65378275       2.77218336      -0.13026724       0.00000000
