10
Lattice="16.290000149 0.0 0.0 0.0 16.290000149 0.0 0.0 0.0 29.1751946751" Properties=species:S:1:pos:R:3:initial_magmoms:R:1 pbc="T T T"
Si      -0.11740203       2.30525005       0.23518124       0.00000000
Si       1.60101379       0.07374483      -1.79121108       0.00000000
Si       0.28624788      -0.88537780       2.24153021       0.00000000
Si      -2.12719709      -0.96989032      -0.68004461       0.00000000
H        1.09454140      -2.74952397       0.05835039       0.00000000
H        2.53446338      -1.83914102       0.60792353       0.00000000
Si      -1.86452084       1.98292796       1.72743410       0.00000000
Si      -1.90803143      -0.16231356       2.70766229       0.00000000
Si       3.17998722      -1.01221174      -0.46925383       0.00000000
Si      -1.04446594      -2.39006882      -2.17810333       0.00000000
