10
Lattice="16.290000149 0.0 0.0 0.0 16.290000149 0.0 0.0 0.0 29.1751946751" Properties=species:S:1:pos:R:3:initial_magmoms:R:1 pbc="T T T"
Si      -1.34739478      -1.33245685      -1.38888806       0.00000000
Si      -1.34364808       1.30290679       1.42407043       0.00000000
Si       1.30357468       1.35420400      -1.43361947       0.00000000
Si       1.34842105      -1.38520387       1.36186891       0.00000000
Si       2.69404511       2.64069047       0.00107948       0.00000000
Si      -2.68952789       2.64758114       0.05808781       0.00000000
Si       2.66297031      -0.10450035      -2.72189103       0.00000000
Si      -2.68824098      -2.75133216      -0.02870839       0.00000000
Si       0.01394424       2.65079027       2.79177438       0.00000000
Si       2.71273463      -0.05535342       2.74121377       0.00000000
