10
Lattice="16.290000149 0.0 0.0 0.0 16.290000149 0.0 0.0 0.0 29.1751946751" Properties=species:S:1:pos:R:3:initial_magmoms:R:1 pbc="T T T"
Si      -1.36044307      -1.36234900       1.34404287       0.00000000
Si       1.35454609       1.35340579       1.36061438       0.00000000
Si       1.36927225      -1.37914399      -1.32248240       0.00000000
Si      -1.38362374       1.33809319      -1.35043224       0.00000000
Si      -0.01971090       2.69964398      -2.68012091       0.00000000
Si       2.71650413      -0.04092048       2.66562084       0.00000000
Si      -0.00413766      -2.70565499      -2.68642275       0.00000000
Si      -2.73543312       0.00187335       2.67664906       0.00000000
Si      -0.00975771      -2.73900063       2.68624770       0.00000000
Si       2.72956872       2.69599502       0.01843872       0.00000000
