10
Lattice="16.290000149 0.0 0.0 0.0 16.290000149 0.0 0.0 0.0 29.1751946751" Properties=species:S:1:pos:R:3:initial_magmoms:R:1 pbc="T T T"
Si      -1.28925740      -1.40815648      -1.32020673       0.00000000
Si       1.40981643      -1.22650669       1.38395453       0.00000000
Si      -1.34143427       1.30191310       1.42342857       0.00000000
Si       1.46438793       1.38254860      -1.21675149       0.00000000
Si       2.08130653       0.66020113       2.66486228       0.00000000
Si       0.42961454       2.31319631       2.57325217       0.00000000
Si      -2.61182622      -0.03420900      -2.65494272       0.00000000
Si       0.11736456       2.73584036      -2.60268994       0.00000000
Si      -2.60700438      -2.73698067       0.12020180       0.00000000
Si       0.11537067      -2.72697860      -2.63344060       0.00000000
