10
Lattice="16.290000149 0.0 0.0 0.0 16.290000149 0.0 0.0 0.0 29.1751946751" Properties=species:S:1:pos:R:3:initial_magmoms:R:1 pbc="T T T"
Si       1.32124933      -1.48866256      -1.20809521       0.00000000
Si       1.36060597       1.28259715       1.41010134       0.00000000
Si      -1.34990344      -1.39476700       1.31108073       0.00000000
Si      -1.38295585       1.32452110      -1.36568211       0.00000000
Si       2.69418683       2.62259139       0.08120624       0.00000000
Si      -2.69851997       2.64769428       0.03498106       0.00000000
Si      -2.67380804      -0.04312053       2.69573547       0.00000000
Si       0.03036456       2.70213546       2.69643568       0.00000000
Si       0.03487689      -2.75188691       2.65025134       0.00000000
Si      -2.68750793      -2.71902998      -0.09339563       0.00000000
