10
Lattice="16.290000149 0.0 0.0 0.0 16.290000149 0.0 0.0 0.0 29.1751946751" Properties=species:S:1:pos:R:3:initial_magmoms:R:1 pbc="T T T"
H        1.16996410      -2.00178038       0.19699091       0.00000000
H       -1.99612775      -0.62369524      -1.08700940       0.00000000
Si       1.89890903       0.68198086       1.26459881       0.00000000
Si      -0.77849911      -1.87440887       1.27685239       0.00000000
Si       0.61841728      -0.33316308      -2.33328619       0.00000000
Si      -1.78986377       1.54175077       0.62726669       0.00000000
H       -2.64474668      -0.19925928      -1.13024704       0.00000000
H        2.78775660       0.42086844      -1.22395777       0.00000000
H       -0.44781210       2.16257897      -2.21819005       0.00000000
H        2.36972261       1.97586299       0.62714998       0.00000000
