10
Lattice="16.290000149 0.0 0.0 0.0 16.290000149 0.0 0.0 0.0 29.1751946751" Properties=species:S:1:pos:R:3:initial_magmoms:R:1 pbc="T T T"
Si      -1.34775805       1.33613839      -1.37520198       0.00000000
Si       1.31258305       1.46725660       1.28006167       0.00000000
Si      -1.40991254      -1.29363127       1.38894349       0.00000000
Si       1.41885901      -1.35486863      -1.33645732       0.00000000
H        2.21991977       0.56860246       2.08774776       0.00000000
H        0.20238696       0.22577940       3.50049821       0.00000000
Si      -0.02837718      -2.74409940       2.54361017       0.00000000
Si      -2.64070776      -2.65638459      -0.05552040       0.00000000
Si      -2.61935123       2.69768918       0.04767227       0.00000000
Si       0.07530867      -2.70177797      -2.72443803       0.00000000
