10
Lattice="16.290000149 0.0 0.0 0.0 16.290000149 0.0 0.0 0.0 29.1751946751" Properties=species:S:1:pos:R:3:initial_magmoms:R:1 pbc="T T T"
Si      -0.73028071       2.19009930       0.40185913       0.00000000
Si       1.89988643       0.54782130       1.28633433       0.00000000
Si      -1.61463223      -1.48679809       0.94104590       0.00000000
Si       0.73106263       0.34381511      -2.26215707       0.00000000
H        1.44748054      -2.17752667      -1.27171756       0.00000000
H        1.72131545       1.93532369       1.89673776       0.00000000
Si       2.54176130       1.66991072      -1.65650920       0.00000000
Si       1.20953251       3.21773767      -0.49907088       0.00000000
H       -0.45436068      -2.59938881      -2.51685652       0.00000000
Si      -0.40184172      -2.90239910       2.39041268       0.00000000
