10
Lattice="16.290000149 0.0 0.0 0.0 16.290000149 0.0 0.0 0.0 29.1751946751" Properties=species:S:1:pos:R:3:initial_magmoms:R:1 pbc="T T T"
Si      -1.31556412       1.32317318       1.40066317       0.00000000
Si       0.98891704       1.78686804      -1.15272653       0.00000000
Si       1.38295585      -1.32452110       1.36568211       0.00000000
Si      -1.29753109      -1.28371391      -1.50628904       0.00000000
Si      -2.51841773       2.72079003      -0.04050684       0.00000000
Si       1.07127928       1.09530866      -3.38318767       0.00000000
Si      -2.63322965      -2.64844289      -0.09768147       0.00000000
Si      -0.64374823       3.52233949      -1.23531071       0.00000000
Si       0.11306889       2.72699652       2.64326972       0.00000000
Si       0.03305241      -2.71928810       2.67676284       0.00000000
