10
Lattice="16.290000149 0.0 0.0 0.0 16.290000149 0.0 0.0 0.0 29.1751946751" Properties=species:S:1:pos:R:3:initial_magmoms:R:1 pbc="T T T"
Si      -1.34014573      -1.34824186       1.37289714       0.00000000
Si       1.32374170      -1.37078722      -1.37353899       0.00000000
Si      -1.35969373       1.32554989      -1.39127751       0.00000000
Si       1.34368066       1.32699970       1.40735304       0.00000000
Si       2.69948108       2.67432932       0.01412079       0.00000000
Si       2.62782137      -2.75115297       0.00172134       0.00000000
Si      -2.73320138       2.68442912      -0.07002047       0.00000000
Si      -2.73334799       0.00488700       2.68572255       0.00000000
Si       2.67763619      -0.02275713      -2.74739891       0.00000000
Si      -0.00571779       2.70040961      -2.73418254       0.00000000
