10
Lattice="16.290000149 0.0 0.0 0.0 16.290000149 0.0 0.0 0.0 29.1751946751" Properties=species:S:1:pos:R:3:initial_magmoms:R:1 pbc="T T T"
Si      -1.31189887      -1.35979147      -1.34587215       0.00000000
Si       1.31730715      -1.39131262       1.34165050       0.00000000
Si      -1.41877756       1.33086043       1.30208894       0.00000000
Si       1.30908070       1.28951641      -1.47012639       0.00000000
Si      -0.04536765       2.65737143       2.66602929       0.00000000
Si       2.69581583      -0.02731833       2.64665696       0.00000000
Si       2.68089419       2.69615792      -0.15807120       0.00000000
Si       2.64456749      -2.75007783      -0.02479892       0.00000000
Si      -2.77016340      -0.04473234       2.64902015       0.00000000
Si      -2.77029372       2.64979658      -0.10593513       0.00000000
