10
Lattice="16.290000149 0.0 0.0 0.0 16.290000149 0.0 0.0 0.0 29.1751946751" Properties=species:S:1:pos:R:3:initial_magmoms:R:1 pbc="T T T"
Si       1.33244056       1.31883841      -1.40746974       0.00000000
Si      -1.20229975       1.47152458       1.43130588       0.00000000
Si       1.46763127      -1.20953251       1.45776778       0.00000000
Si      -1.56662560      -1.12365163      -1.46310684       0.00000000
H        1.82316053      -3.00537471      -0.80707341       0.00000000
Si      -0.17510121       2.64152126      -2.68855254       0.00000000
Si      -2.52863156       0.08910630       2.80819418       0.00000000
Si       2.92622160       2.45198711      -0.06812408       0.00000000
H        2.01868940       3.19772703       0.90772783       0.00000000
Si      -2.60236010       2.89672041       0.20877769       0.00000000
