10
Lattice="16.290000149 0.0 0.0 0.0 16.290000149 0.0 0.0 0.0 29.1751946751" Properties=species:S:1:pos:R:3:initial_magmoms:R:1 pbc="T T T"
Si       1.54008594      -1.09643104      -1.32472889       0.00000000
Si      -1.13583655      -1.67943386       1.15291617       0.00000000
Si      -1.76578715       1.13222017      -1.05109474       0.00000000
Si       1.46951766       1.36433638       1.34526823       0.00000000
H       -2.04336875      -0.93369394       2.12876808       0.00000000
Si      -3.37253502       1.29818269       0.63310172       0.00000000
Si       2.91292896      -2.40179762       0.08475394       0.00000000
Si      -0.92686843       3.06034531      -2.06709172       0.00000000
Si       2.70400970       0.34771005      -2.69631314       0.00000000
Si       0.25893493      -2.84175795       2.62757638       0.00000000
