10
Lattice="16.290000149 0.0 0.0 0.0 16.290000149 0.0 0.0 0.0 29.1751946751" Properties=species:S:1:pos:R:3:initial_magmoms:R:1 pbc="T T T"
Si      -1.22526865       1.85798855       0.66166424       0.00000000
Si      -1.53497413      -0.71713468      -1.61277559       0.00000000
Si       1.62157177       0.64555642      -1.56997558       0.00000000
Si       0.07429869      -1.45875322       1.93093108       0.00000000
H        0.33738219      -2.55630176      -0.88981426       0.00000000
H        0.06931395       2.42090579       1.57038403       0.00000000
H        1.55808964      -0.43952049      -2.61940733       0.00000000
Si      -2.75243988      -2.03872610      -0.11626315       0.00000000
H       -0.30545379       3.06696720      -2.03418210       0.00000000
Si       2.31995666      -1.96537223       2.20564472       0.00000000
