10
Lattice="16.290000149 0.0 0.0 0.0 16.290000149 0.0 0.0 0.0 29.1751946751" Properties=species:S:1:pos:R:3:initial_magmoms:R:1 pbc="T T T"
Si       1.35993808      -1.35736100      -1.33960824       0.00000000
Si       1.37319814       1.34745994       1.34328431       0.00000000
Si      -1.34443000      -1.35521398       1.36566169       0.00000000
Si      -1.32994819       1.36992385      -1.37263456       0.00000000
Si       0.00197109       2.70417260       2.67606556       0.00000000
Si       2.70852203       0.01625742      -2.67708669       0.00000000
Si       0.04533507      -2.70374906       2.69873468       0.00000000
Si       0.00434943      -2.72899857      -2.67778689       0.00000000
Si      -2.68902290       2.72543105      -0.01840955       0.00000000
Si      -2.70112637      -2.71788878       0.01520028       0.00000000
