10
Lattice="16.290000149 0.0 0.0 0.0 16.290000149 0.0 0.0 0.0 29.1751946751" Properties=species:S:1:pos:R:3:initial_magmoms:R:1 pbc="T T T"
Si      -1.37862271       1.36599796       1.31197933       0.00000000
Si      -1.37850868      -1.33540534      -1.34456802       0.00000000
Si       1.35632170       1.35558865      -1.35769686       0.00000000
Si       1.35462754      -1.35159760       1.36907519       0.00000000
Si      -0.00159642       2.70617627       2.64458552       0.00000000
Si      -0.00744453      -2.68120370      -2.68312595       0.00000000
Si      -2.73230543       0.01470987       2.67411082       0.00000000
Si       2.71516835      -2.70313004       0.01607553       0.00000000
Si       0.00040725       2.72585459      -2.69675077       0.00000000
Si      -2.72841212      -2.70013268       0.01216606       0.00000000
