10
Lattice="16.290000149 0.0 0.0 0.0 16.290000149 0.0 0.0 0.0 29.1751946751" Properties=species:S:1:pos:R:3:initial_magmoms:R:1 pbc="T T T"
Si      -1.34197021      -1.33252201       1.37313054       0.00000000
Si       1.37350765      -1.35887923      -1.32125704       0.00000000
Si       1.35987292       1.30811959       1.38952700       0.00000000
Si      -1.35666379       1.33478632      -1.37747764       0.00000000
Si      -0.06985152       2.75201634       2.51084643       0.00000000
Si      -0.00043983      -2.72298755      -2.65298798       0.00000000
Si      -2.78076819       0.03777651       2.60651189       0.00000000
Si       2.72748359       0.01598049      -2.66416208       0.00000000
Si      -2.72448623      -2.68302818       0.03255952       0.00000000
Si       2.70927137       2.69922044       0.04422960       0.00000000
