10
Lattice="16.290000149 0.0 0.0 0.0 16.290000149 0.0 0.0 0.0 29.1751946751" Properties=species:S:1:pos:R:3:initial_magmoms:R:1 pbc="T T T"
Si       1.32411637       1.33644318       1.33834204       0.00000000
Si      -1.41736033       1.34344299      -1.25378649       0.00000000
Si       1.23215932      -1.20142156      -1.59670881       0.00000000
Si      -1.46061028      -1.43598127       1.21542694       0.00000000
Si      -2.45586413      -0.51056265      -2.20693718       0.00000000
Si      -0.70938064      -2.05314421      -2.65961133       0.00000000
Si       2.62348310       2.62811313      -0.13180186       0.00000000
Si       2.64123684      -0.09792066       2.61461093       0.00000000
Si       2.53249229      -2.72935841      -0.27628034       0.00000000
Si      -0.11834685       2.66878926       2.62085442       0.00000000
