10
Lattice="16.290000149 0.0 0.0 0.0 16.290000149 0.0 0.0 0.0 29.1751946751" Properties=species:S:1:pos:R:3:initial_magmoms:R:1 pbc="T T T"
Si       1.72444313       0.93893932       1.27755260       0.00000000
Si      -0.86535739      -1.72795362       1.38212817       0.00000000
Si       0.72966169      -0.63478873      -2.17928785       0.00000000
Si      -1.70500916       1.66912229       0.12653574       0.00000000
H       -2.91752274      -0.94934863      -0.67323512       0.00000000
Si       0.46711575       2.34220880       2.64001669       0.00000000
Si      -2.36325548      -0.49181139       2.66196227       0.00000000
Si      -0.84390346      -2.32112140      -2.62228400       0.00000000
Si       2.97531966      -1.14140773      -1.90457421       0.00000000
Si      -2.35639739       2.09284148      -2.00575379       0.00000000
