10
Lattice="16.290000149 0.0 0.0 0.0 16.290000149 0.0 0.0 0.0 29.1751946751" Properties=species:S:1:pos:R:3:initial_magmoms:R:1 pbc="T T T"
Si      -1.21746574      -1.32159142       1.49651244       0.00000000
Si       1.53497413       0.71713468       1.61277559       0.00000000
Si       0.62750710      -1.07201233      -2.04687331       0.00000000
Si      -1.48335112       1.86935897      -0.35173615       0.00000000
H        1.87235633      -1.83916708       0.72296132       0.00000000
H        3.09306378       0.27761418      -1.00663174       0.00000000
Si      -1.86784400       1.22318353      -2.57479846       0.00000000
Si       3.15654591       1.36269109       0.04280001       0.00000000
Si       0.30970548       2.57512322       2.27443983       0.00000000
Si      -2.54969453       0.22623552       2.65395076       0.00000000
