10
Lattice="16.290000149 0.0 0.0 0.0 16.290000149 0.0 0.0 0.0 29.1751946751" Properties=species:S:1:pos:R:3:initial_magmoms:R:1 pbc="T T T"
Si       1.34990344       1.39476700      -1.31108073       0.00000000
Si      -1.32390460       1.35164647       1.38465474       0.00000000
Si      -1.33760449      -1.32426298      -1.40447637       0.00000000
Si       1.38478033      -1.35711991       1.33917061       0.00000000
Si       2.67115277      -0.09389556      -2.51917595       0.00000000
Si       0.02086749      -2.71867070       2.66885928       0.00000000
Si       2.71050941       2.67736415       0.09902061       0.00000000
Si      -0.03305241       2.71928810      -2.67676284       0.00000000
Si      -2.71145423      -0.00780291       2.68866924       0.00000000
Si      -2.69430086       2.71223615       0.07109995       0.00000000
