10
Lattice="16.290000149 0.0 0.0 0.0 16.290000149 0.0 0.0 0.0 29.1751946751" Properties=species:S:1:pos:R:3:initial_magmoms:R:1 pbc="T T T"
Si       1.33886860      -1.35913987       1.36321097       0.00000000
Si      -1.35186476      -1.35273790      -1.36146046       0.00000000
Si      -1.32764153       1.34897491       1.39562461       0.00000000
Si       1.35870982       1.35184195      -1.36274417       0.00000000
Si       2.68983089       0.02707398       2.68636440       0.00000000
Si      -2.67049140       2.70676271       0.02643273       0.00000000
Si       0.03646028      -2.71362080      -2.68475976       0.00000000
Si      -2.69012085      -2.70995555       0.01951821       0.00000000
Si      -2.69719071       0.02798622      -2.71621062       0.00000000
Si       2.69892071       2.71466336       0.00250907       0.00000000
