10
Lattice="16.290000149 0.0 0.0 0.0 16.290000149 0.0 0.0 0.0 29.1751946751" Properties=species:S:1:pos:R:3:initial_magmoms:R:1 pbc="T T T"
Si      -1.36391284      -1.36155079       1.32968867       0.00000000
Si       1.33654564      -1.44111115      -1.28904763       0.00000000
Si      -1.38478033       1.35711991      -1.33917061       0.00000000
Si       1.38007252       1.34441371       1.35696748       0.00000000
Si       2.69260670      -0.10127493      -2.60511440       0.00000000
Si       0.01971090      -2.69964398       2.68012091       0.00000000
Si      -2.71399547       0.00343719       2.68560585       0.00000000
Si      -0.03487689       2.75188691      -2.65025134       0.00000000
Si      -2.69881319      -2.71282259      -0.06456471       0.00000000
Si      -2.70868493       2.70876638       0.04548413       0.00000000
