10
Lattice="16.290000149 0.0 0.0 0.0 16.290000149 0.0 0.0 0.0 29.1751946751" Properties=species:S:1:pos:R:3:initial_magmoms:R:1 pbc="T T T"
Si       1.34568433       1.33022512      -1.34719962       0.00000000
Si      -1.35646831       1.39538512       1.28884340       0.00000000
Si       1.37039626      -1.36058968       1.31355479       0.00000000
Si      -1.30101715      -1.32756985      -1.42504780       0.00000000
Si      -2.68090071       0.01168319       2.65103324       0.00000000
Si      -0.01715337      -2.72003906       2.61756929       0.00000000
Si       0.03609864       2.73833274       2.61870712       0.00000000
Si       2.72598491       0.01104788       2.65173344       0.00000000
Si      -2.57864349       0.04896122      -2.80901108       0.00000000
Si      -2.65023967       2.74947510      -0.14269588       0.00000000
