10
Lattice="16.290000149 0.0 0.0 0.0 16.290000149 0.0 0.0 0.0 29.1751946751" Properties=species:S:1:pos:R:3:initial_magmoms:R:1 pbc="T T T"
Si      -1.36860436      -1.34379469       1.34296339       0.00000000
Si      -1.38223909       1.34587981      -1.33610722       0.00000000
Si       1.35008263      -1.36498798      -1.35591717       0.00000000
Si       1.36642150       1.36208836       1.35259120       0.00000000
Si       0.00531054       2.70532919      -2.64012172       0.00000000
Si      -0.00172674      -2.70120782       2.67116412       0.00000000
Si       2.71399547      -0.00343719      -2.68560585       0.00000000
Si      -2.70881525      -2.70661610      -0.02228985       0.00000000
Si      -2.70016526       2.71643897       0.05286545       0.00000000
Si      -2.68688891       0.01902672       2.73386162       0.00000000
