10
Lattice="16.290000149 0.0 0.0 0.0 16.290000149 0.0 0.0 0.0 29.1751946751" Properties=species:S:1:pos:R:3:initial_magmoms:R:1 pbc="T T T"
Si       1.39993003       1.41662077       1.25785934       0.00000000
Si      -1.26113923       1.39189580      -1.43086825       0.00000000
Si       1.42990363      -1.28202301      -1.41216695       0.00000000
Si      -1.29746593      -1.59014836       1.27623972       0.00000000
Si      -2.52781706      -2.72761391      -0.34940213       0.00000000
Si       0.28150749      -2.67610493       2.59819696       0.00000000
Si      -2.58481577       2.78625792      -0.06596512       0.00000000
Si       2.86894496       0.12389490       2.53053969       0.00000000
Si      -2.56779272       0.07771959      -2.87734522       0.00000000
Si       2.86860563      -2.63148662      -0.12516159       0.00000000
