10
Lattice="16.290000149 0.0 0.0 0.0 16.290000149 0.0 0.0 0.0 29.1751946751" Properties=species:S:1:pos:R:3:initial_magmoms:R:1 pbc="T T T"
Si      -1.51918912      -1.28480860      -1.21835613       0.00000000
Si      -1.43734816       1.15083964       1.46684126       0.00000000
Si       1.36627489      -1.34527708       1.42692960       0.00000000
Si       0.76264894       1.48398806      -1.71795216       0.00000000
H        1.19218366      -2.07852257      -2.26822551       0.00000000
Si      -1.30999294       2.19983094      -2.56301168       0.00000000
Si      -0.16477335      -2.66281229      -2.53459504       0.00000000
Si      -2.59778424       0.22112046      -2.68758976       0.00000000
Si       0.00887805       2.58958060       2.74232242       0.00000000
H       -0.63633628       3.75333006       0.01625058       0.00000000
