10
Lattice="16.290000149 0.0 0.0 0.0 16.290000149 0.0 0.0 0.0 29.1751946751" Properties=species:S:1:pos:R:3:initial_magmoms:R:1 pbc="T T T"
Si      -1.23740470       1.36586764       1.41832291       0.00000000
Si       1.32256882      -1.37394748       1.33473598       0.00000000
Si       1.34969343       1.41048595      -1.30503563       0.00000000
Si      -1.38776140      -1.35876520      -1.33056393       0.00000000
H       -1.88292854       0.53893836       2.49550028       0.00000000
Si       2.61182622       0.03420900       2.65494272       0.00000000
Si      -2.81637813       2.45182421       0.09636567       0.00000000
Si      -0.08900856       2.75994957      -2.59204100       0.00000000
Si       2.68835664       0.04746906      -2.67790359       0.00000000
Si      -0.00417024      -2.70236441      -2.66643774       0.00000000
