10
Lattice="16.290000149 0.0 0.0 0.0 16.290000149 0.0 0.0 0.0 29.1751946751" Properties=species:S:1:pos:R:3:initial_magmoms:R:1 pbc="T T T"
Si      -0.47081358      -1.29388213       0.63744883       0.00000000
H        0.41803398      -1.55499454      -1.85110775       0.00000000
Si       1.47598804      -0.44696502      -2.01162967       0.00000000
Si       2.78359124      -0.37910088      -0.03728590       0.00000000
Si      -1.31571073      -0.29949165       2.57401073       0.00000000
H        2.53485109      -1.40833567       1.12435365       0.00000000
Si      -2.36972261      -1.97586299      -0.62714998       0.00000000
Si       1.45399654      -2.79997410       0.52903381       0.00000000
Si      -2.82325251       1.02319120       1.29292793       0.00000000
Si       0.24042411       1.21458241      -3.20159834       0.00000000
