10
Lattice="16.290000149 0.0 0.0 0.0 16.290000149 0.0 0.0 0.0 29.1751946751" Properties=species:S:1:pos:R:3:initial_magmoms:R:1 pbc="T T T"
Si       1.43936812       1.33017625       1.21033295       0.00000000
Si      -1.24092334       1.38955330      -1.37196353       0.00000000
Si       1.52114392      -1.31705140      -1.19694154       0.00000000
Si      -1.16183539      -1.43972976       1.50331026       0.00000000
H        2.08257878       0.48764115       2.28972763       0.00000000
Si       2.50308884      -2.17795347       0.79006427       0.00000000
Si       0.75597004      -2.50027556       2.28231713       0.00000000
Si       0.00764001       2.55606392       2.49687151       0.00000000
Si      -2.41619798      -2.75794590       0.03220941       0.00000000
Si      -2.53412129      -0.04707810      -2.68557667       0.00000000
