10
Lattice="16.290000149 0.0 0.0 0.0 16.290000149 0.0 0.0 0.0 29.1751946751" Properties=species:S:1:pos:R:3:initial_magmoms:R:1 pbc="T T T"
Si       1.32042832      -1.33617097      -1.40720716       0.00000000
Si       1.39154720       1.37531584       1.31215438       0.00000000
Si      -1.33981993       1.36572103      -1.37578548       0.00000000
Si      -1.35580042      -1.34732962       1.39323225       0.00000000
Si      -0.01308087       2.69413796       2.62538824       0.00000000
Si       2.64942191      -2.69549003      -0.04174970       0.00000000
Si      -2.69948108      -2.67432932      -0.01412079       0.00000000
Si      -2.72341109       2.70932024      -0.03991167       0.00000000
Si       2.67102245       0.02919168      -2.77132257       0.00000000
Si       0.03573961      -2.70197345       2.74451056       0.00000000
