10
Lattice="16.290000149 0.0 0.0 0.0 16.290000149 0.0 0.0 0.0 29.1751946751" Properties=species:S:1:pos:R:3:initial_magmoms:R:1 pbc="T T T"
Si       1.31193145       1.35967744       1.34583423       0.00000000
Si      -1.37490859       1.26418546      -1.41762563       0.00000000
Si       1.28730097      -1.44894664      -1.32823283       0.00000000
Si      -1.42708546      -1.39057957       1.28156127       0.00000000
Si      -2.18479853      -0.59526919      -2.59844904       0.00000000
Si      -0.55179118      -2.33069177      -2.51400902       0.00000000
Si       2.62076780       2.64901466      -0.12464518       0.00000000
Si       2.62889651      -0.03170034       2.68754308       0.00000000
Si      -0.10665063       2.69042384       2.64812739       0.00000000
Si       2.53676027      -2.81924517       0.08513322       0.00000000
