10
Lattice="16.290000149 0.0 0.0 0.0 16.290000149 0.0 0.0 0.0 29.1751946751" Properties=species:S:1:pos:R:3:initial_magmoms:R:1 pbc="T T T"
Si       1.35459008      -1.32359509       1.35956407       0.00000000
Si      -1.24622183       1.35985663       1.44032101       0.00000000
Si      -1.36465078      -1.38088702      -1.31982746       0.00000000
Si       1.35973772       1.35964486      -1.35130749       0.00000000
Si       2.66174856       0.11442096       2.67574463       0.00000000
Si      -2.64719507       2.70541064       0.09064733       0.00000000
Si      -2.66796482       0.00241092      -2.69184934       0.00000000
Si       0.03461136      -2.71488165      -2.66772145       0.00000000
Si      -0.05191786      -2.67369890       2.73397832       0.00000000
Si       0.02949956       2.71663445      -2.71530619       0.00000000
