10
Lattice="16.290000149 0.0 0.0 0.0 16.290000149 0.0 0.0 0.0 29.1751946751" Properties=species:S:1:pos:R:3:initial_magmoms:R:1 pbc="T T T"
Si      -0.93220503       0.81597099       1.99359940       0.00000000
Si       1.35725675       1.38978625      -1.33403578       0.00000000
Si      -1.87013437      -0.90492906      -1.11367553       0.00000000
Si       1.84102088      -1.17468331       0.92949253       0.00000000
H        2.64066441       1.43036464      -0.51602167       0.00000000
H       -2.91313421       0.21126990      -1.10883245       0.00000000
Si       0.52351662      -2.60178507       2.27487745       0.00000000
Si       1.95164627      -0.12570993      -3.10073969       0.00000000
Si       0.40140841       2.79403313       2.47872454       0.00000000
Si      -0.64703701      -1.01026346       3.56199952       0.00000000
