10
Lattice="16.290000149 0.0 0.0 0.0 16.290000149 0.0 0.0 0.0 29.1751946751" Properties=species:S:1:pos:R:3:initial_magmoms:R:1 pbc="T T T"
Si      -2.19672281       0.72226603       0.46496508       0.00000000
Si      -0.26990901      -2.03115125       1.19600793       0.00000000
Si       1.58557087       1.30878748       1.19822525       0.00000000
Si      -0.28668771       0.88764211      -2.24015897       0.00000000
H        2.24600006      -0.96251095      -1.63550306       0.00000000
H        0.80270605      -1.86983138      -2.17956209       0.00000000
H        1.61051086      -2.61998588      -0.53060927       0.00000000
H        1.04233195      -2.49305420       1.79999281       0.00000000
Si      -2.15381495       2.86903229      -0.51322085       0.00000000
Si      -0.39604248       3.19393798      -1.99651692       0.00000000
