10
Lattice="16.290000149 0.0 0.0 0.0 16.290000149 0.0 0.0 0.0 29.1751946751" Properties=species:S:1:pos:R:3:initial_magmoms:R:1 pbc="T T T"
Si      -1.32662503       0.24956280       1.89988868       0.00000000
Si       2.21130236      -0.08617410       0.79715384       0.00000000
Si      -1.29196317      -0.11635947      -2.00515278       0.00000000
Si      -0.54915219       2.37817712       0.73133460       0.00000000
Si      -0.53424684      -2.00997425       1.68259183       0.00000000
H        2.05812749       0.70824034       2.07491067       0.00000000
H       -2.42216501       0.86231116      -1.73901665       0.00000000
H        0.13729212      -1.66728152      -2.72172474       0.00000000
H        0.64558900       2.74168848       1.62438731       0.00000000
H        0.74916082      -1.96939586       2.50060594       0.00000000
