10
Lattice="16.290000149 0.0 0.0 0.0 16.290000149 0.0 0.0 0.0 29.1751946751" Properties=species:S:1:pos:R:3:initial_magmoms:R:1 pbc="T T T"
Si       1.42993621      -1.21207375       1.38646360       0.00000000
Si      -1.44112744       1.24009255       1.36837498       0.00000000
Si      -1.35741248      -1.40253643      -1.31883550       0.00000000
Si       1.36374994       1.42508179      -1.30451048       0.00000000
H       -1.17757642      -1.38609982       3.07319831       0.00000000
Si      -0.04737458      -2.36477045       2.80706218       0.00000000
Si       2.55055790      -2.64797210      -0.08341188       0.00000000
Si      -0.01918473       2.67814118       2.53468256       0.00000000
Si       2.55979433       0.01837512      -2.77777029       0.00000000
Si      -2.73310365       2.65121381       0.00624349       0.00000000
