10
Lattice="16.290000149 0.0 0.0 0.0 16.290000149 0.0 0.0 0.0 29.1751946751" Properties=species:S:1:pos:R:3:initial_magmoms:R:1 pbc="T T T"
Si      -1.82236232      -1.30186423       0.64138748       0.00000000
Si       1.82604386      -1.45573957      -0.16518995       0.00000000
Si      -1.04840812       0.83013841      -1.94578126       0.00000000
Si       0.65094841       1.77510503       1.58564266       0.00000000
H        0.00513135      -1.14471460       3.12615128       0.00000000
Si      -2.58895343       2.07886466      -0.71730134       0.00000000
Si       3.45216054       0.22779936      -0.09417753       0.00000000
Si      -3.48912255       0.33897861       0.55494138       0.00000000
Si      -1.35184195      -1.72186931       2.85318816       0.00000000
Si       2.88233634       1.26242614       1.91424287       0.00000000
