10
Lattice="16.290000149 0.0 0.0 0.0 16.290000149 0.0 0.0 0.0 29.1751946751" Properties=species:S:1:pos:R:3:initial_magmoms:R:1 pbc="T T T"
Si       1.24945930      -1.37029852       1.41336605       0.00000000
Si      -1.28730097       1.44894664       1.32823283       0.00000000
Si       1.90754273       0.79022791      -1.12241350       0.00000000
Si      -1.83909215      -0.88174513      -1.18577619       0.00000000
H        0.69525721      -1.82737964      -1.92213476       0.00000000
Si       1.25450920       1.21411000      -3.25415745       0.00000000
Si       2.66888846       0.05844852       2.64961824       0.00000000
Si      -2.71438643       0.05836707       2.60979410       0.00000000
Si       2.74771578      -2.60582336       0.13361656       0.00000000
Si      -3.47209950       0.85367746      -1.27021621       0.00000000
