10
Lattice="16.290000149 0.0 0.0 0.0 16.290000149 0.0 0.0 0.0 29.1751946751" Properties=species:S:1:pos:R:3:initial_magmoms:R:1 pbc="T T T"
Si       1.39333258       1.43526304      -1.17619797       0.00000000
Si       1.70191406      -1.59712048       0.01540450       0.00000000
Si      -0.95645107       1.27065259       1.75462538       0.00000000
Si      -1.59425344      -0.81321310      -1.56119384       0.00000000
Si      -2.07236495       1.21626028      -2.62054516       0.00000000
Si      -0.17462880       2.71541270      -2.30002647       0.00000000
Si       0.62866369      -3.35616357      -1.04768124       0.00000000
Si      -2.40826475       2.68840388       0.53848657       0.00000000
Si      -0.29781378      -2.31394565      -2.88350119       0.00000000
Si       2.35494758      -2.02100258       2.14714845       0.00000000
