10
Lattice="16.290000149 0.0 0.0 0.0 16.290000149 0.0 0.0 0.0 29.1751946751" Properties=species:S:1:pos:R:3:initial_magmoms:R:1 pbc="T T T"
Si       1.34731333      -1.34687350      -1.36723715       0.00000000
Si      -1.35278677      -1.37441989       1.34456802       0.00000000
Si      -1.35513253       1.33121881      -1.38760143       0.00000000
Si       1.36526491       1.34089507       1.37018384       0.00000000
Si      -0.01974348       2.68250690       2.70637858       0.00000000
Si      -2.72736957      -0.01596420       2.66497898       0.00000000
Si       2.68350059      -2.72218934      -0.01394574       0.00000000
Si      -0.01200573      -2.71138907      -2.69797613       0.00000000
Si      -2.73432540       2.67809231      -0.06622769       0.00000000
Si       2.70917363       2.70615998       0.00058350       0.00000000
