10
Lattice="16.290000149 0.0 0.0 0.0 16.290000149 0.0 0.0 0.0 29.1751946751" Properties=species:S:1:pos:R:3:initial_magmoms:R:1 pbc="T T T"
Si      -1.32729292       1.35879778       1.36615767       0.00000000
Si       1.37741725      -1.34003170       1.35860129       0.00000000
Si       1.41092578       1.40413285      -1.25774848       0.00000000
Si      -1.41942916      -1.42874704      -1.23625219       0.00000000
Si       0.07882731      -2.66427188      -2.51600169       0.00000000
Si       2.66885588       0.00327429      -2.62242404       0.00000000
Si      -2.66888846      -0.05844852      -2.64961824       0.00000000
Si       0.05116689       2.72269433       2.67098907       0.00000000
Si      -2.64425798       2.75017557       0.02444881       0.00000000
Si       0.09596439       2.66761784      -2.73034309       0.00000000
