10
Lattice="16.290000149 0.0 0.0 0.0 16.290000149 0.0 0.0 0.0 29.1751946751" Properties=species:S:1:pos:R:3:initial_magmoms:R:1 pbc="T T T"
Si      -0.53146125      -0.25661637       1.38722216       0.00000000
H       -0.66943756      -0.92372446      -1.61890238       0.00000000
H       -1.59187510       0.84610261      -1.17103396       0.00000000
H        1.26793216       1.75866842       0.42292362       0.00000000
Si       0.45973638      -0.98072317      -2.62623432       0.00000000
Si       2.17844543       1.83132182      -0.79216489       0.00000000
Si       2.52187121      -0.28887057      -1.72323287       0.00000000
Si       1.15781176      -1.18672651       2.69832623       0.00000000
Si      -2.32976324      -1.85143997       1.26882922       0.00000000
Si      -1.38075670       1.61872102       2.50142284       0.00000000
