10
Lattice="16.290000149 0.0 0.0 0.0 16.290000149 0.0 0.0 0.0 29.1751946751" Properties=species:S:1:pos:R:3:initial_magmoms:R:1 pbc="T T T"
Si       1.42335505       1.39215970       1.18039920       0.00000000
Si      -1.31988097       1.44102970      -1.27583126       0.00000000
Si       1.43363404      -1.32234076      -1.28251238       0.00000000
Si      -1.38155491      -1.33946155       1.33952071       0.00000000
Si       0.05582583      -2.66206295      -2.61476847       0.00000000
Si      -2.66916539       0.07920198      -2.62407536       0.00000000
Si      -2.56344329       0.11262906       2.75084158       0.00000000
Si       0.01246185      -2.62161488       2.70147715       0.00000000
Si       2.71770959       0.09596439       2.60534488       0.00000000
Si       0.06880896       2.80043022      -2.58941523       0.00000000
