10
Lattice="16.290000149 0.0 0.0 0.0 16.290000149 0.0 0.0 0.0 29.1751946751" Properties=species:S:1:pos:R:3:initial_magmoms:R:1 pbc="T T T"
Si      -0.56982421       1.03462678       2.00842040       0.00000000
Si      -1.62611668      -1.68353894      -0.07101242       0.00000000
Si       2.19672281      -0.72226603      -0.46496508       0.00000000
Si       0.04290786       2.14676627      -0.97818593       0.00000000
Si       0.67992832       2.81736367       1.16928345       0.00000000
Si       1.91003510       0.16537608      -2.70512405       0.00000000
Si       1.92681380      -2.75341728       0.73104285       0.00000000
Si      -3.45216054      -0.22779936       0.09417753       0.00000000
Si      -0.21962178      -0.80593147      -3.38496444       0.00000000
Si      -2.80121214       1.54730566       1.67982018       0.00000000
