10
Lattice="16.290000149 0.0 0.0 0.0 16.290000149 0.0 0.0 0.0 29.1751946751" Properties=species:S:1:pos:R:3:initial_magmoms:R:1 pbc="T T T"
Si      -1.26356644       1.42789996       1.32558927       0.00000000
Si       1.63416395      -1.18397350       1.21178588       0.00000000
Si       0.68062879       1.76495636      -1.50508994       0.00000000
Si      -1.33361344      -1.97806214      -0.48512514       0.00000000
Si       0.29830248      -2.59048958       2.56454921       0.00000000
Si       0.16347015       0.85529017      -3.59546347       0.00000000
Si      -2.58489722       0.10143783       2.69017468       0.00000000
Si      -0.40140841      -2.79403313      -2.47872454       0.00000000
Si       0.24349315       2.81261514       2.49237270       0.00000000
Si      -2.40406193       2.92873026      -0.05762101       0.00000000
