10
Lattice="16.290000149 0.0 0.0 0.0 16.290000149 0.0 0.0 0.0 29.1751946751" Properties=species:S:1:pos:R:3:initial_magmoms:R:1 pbc="T T T"
Si      -1.35953083       1.35138583       1.35431254       0.00000000
Si      -1.35905842      -1.34379469      -1.36341520       0.00000000
Si       1.32307381      -1.36552555       1.39197771       0.00000000
Si       1.35607735       1.37715661      -1.35638398       0.00000000
Si       2.69622308       0.01790271       2.70106870       0.00000000
Si       2.69513165      -2.70443487       0.02637438       0.00000000
Si       0.01529631       2.71412579       2.68616017       0.00000000
Si      -2.72305271      -2.69116504      -0.01280791       0.00000000
Si       0.00384444      -2.70594659      -2.70917940       0.00000000
Si      -2.71388144       2.70326036      -0.01508358       0.00000000
