10
Lattice="16.290000149 0.0 0.0 0.0 16.290000149 0.0 0.0 0.0 29.1751946751" Properties=species:S:1:pos:R:3:initial_magmoms:R:1 pbc="T T T"
Si       1.41628519       1.32406750      -1.23944980       0.00000000
Si      -1.42335505      -1.39215970      -1.18039920       0.00000000
Si       1.29435454      -1.29619531       1.42494568       0.00000000
Si      -1.08186778       1.42223104       1.49770862       0.00000000
H        2.13718286      -0.36393489       2.23814588       0.00000000
Si      -0.53602245      -2.12147930       2.58944440       0.00000000
Si       1.04778910       2.39353859       2.17754900       0.00000000
Si      -2.13609143      -0.34236693       2.67866215       0.00000000
Si       2.64790694       2.45974115       0.38680473       0.00000000
Si       0.01027899      -2.71450046      -2.46291158       0.00000000
