10
Lattice="16.290000149 0.0 0.0 0.0 16.290000149 0.0 0.0 0.0 29.1751946751" Properties=species:S:1:pos:R:3:initial_magmoms:R:1 pbc="T T T"
Si       1.30748428      -1.42552162      -1.30082449       0.00000000
Si       1.41283171       1.29534823       1.34426868       0.00000000
Si      -1.29945331      -1.48431223       1.27424530       0.00000000
Si      -1.27884646       1.49560120      -1.33846049       0.00000000
Si       2.57116475       0.05743854      -2.62797492       0.00000000
Si      -2.68405445      -0.11372049       2.62562865       0.00000000
Si       0.03119535       2.65181654       2.66858037       0.00000000
Si      -2.63813294       0.14920011      -2.67859388       0.00000000
Si      -0.07056828      -2.45250839      -2.93317663       0.00000000
Si      -2.72409527       2.68776857       0.02008479       0.00000000
