10
Lattice="16.290000149 0.0 0.0 0.0 16.290000149 0.0 0.0 0.0 29.1751946751" Properties=species:S:1:pos:R:3:initial_magmoms:R:1 pbc="T T T"
Si       1.43683884      -1.36997272       1.26809984       0.00000000
Si      -1.25706673      -1.36788760      -1.45487943       0.00000000
Si       1.38043090       1.32602230      -1.38879762       0.00000000
Si      -1.43136973       1.28135512       1.41543457       0.00000000
Si       0.09117513      -2.76661218       2.59244945       0.00000000
Si      -2.69040755       2.67328839      -0.01630893       0.00000000
Si      -0.02106297       2.69309540       2.67078485       0.00000000
Si      -2.59416623      -2.81442333      -0.19678669       0.00000000
Si      -2.72416043      -0.30911904       2.69301634       0.00000000
Si      -2.64466523      -0.02497257      -2.80032271       0.00000000
