10
Lattice="16.290000149 0.0 0.0 0.0 16.290000149 0.0 0.0 0.0 29.1751946751" Properties=species:S:1:pos:R:3:initial_magmoms:R:1 pbc="T T T"
Si       2.24497379      -0.50591853       0.28101548       0.00000000
Si      -1.57376062      -1.68822231      -0.44104142       0.00000000
Si      -0.73099747       0.63379504       2.17950112       0.00000000
Si      -0.07030764       1.46261395      -1.93276912       0.00000000
H        0.26404461      -1.11061963      -2.82141638       0.00000000
Si      -2.82900288      -0.58034755      -2.04188435       0.00000000
Si      -1.30222261       3.31289733      -1.26667025       0.00000000
Si       1.30704445      -2.22681859      -2.82625946       0.00000000
Si       3.17717882      -1.32188953      -1.71258393       0.00000000
H       -0.00679293       3.86317354      -0.34347957       0.00000000
