10
Lattice="16.290000149 0.0 0.0 0.0 16.290000149 0.0 0.0 0.0 29.1751946751" Properties=species:S:1:pos:R:3:initial_magmoms:R:1 pbc="T T T"
Si      -1.49589442       1.24550083       1.28808484       0.00000000
Si       1.29510453       1.34275213      -1.44624358       0.00000000
Si      -1.41232672      -1.29788947      -1.39437008       0.00000000
Si       1.23948982      -1.36216981       1.54138389       0.00000000
H        0.86512933      -2.65821526       0.33376423       0.00000000
H        1.47494060       1.35918874       2.94579023       0.00000000
Si      -2.87147091      -0.58790611       2.04456847       0.00000000
Si      -2.76521124      -2.31047588       0.24095793       0.00000000
Si       2.48940850      -2.69080340      -0.15258627       0.00000000
Si       2.60514244       0.38051811       2.67965411       0.00000000
