10
Lattice="16.290000149 0.0 0.0 0.0 16.290000149 0.0 0.0 0.0 29.1751946751" Properties=species:S:1:pos:R:3:initial_magmoms:R:1 pbc="T T T"
Si      -1.37054287       1.36070208      -1.31332139       0.00000000
Si      -1.38715867      -1.35957970       1.30401450       0.00000000
Si       1.32374170      -1.35171163      -1.38462556       0.00000000
Si       1.35591445       1.37176299       1.33774103       0.00000000
Si      -0.00417024      -2.70583418       2.63904223       0.00000000
Si      -0.02446758       2.69092883      -2.66003670       0.00000000
Si       2.67359627       0.04347715      -2.69494482       0.00000000
Si      -2.70484049       0.01096317       2.69289964       0.00000000
Si       2.73966851       0.01273878       2.65891054       0.00000000
Si      -0.00343719       2.72930808       2.67743679       0.00000000
