10
Lattice="16.290000149 0.0 0.0 0.0 16.290000149 0.0 0.0 0.0 29.1751946751" Properties=species:S:1:pos:R:3:initial_magmoms:R:1 pbc="T T T"
Si       2.20351574      -0.38191905       0.80473939       0.00000000
Si       0.04854420       2.29418588       0.66656567       0.00000000
Si       0.14483439      -0.41374971      -2.35878531       0.00000000
Si      -1.52182810      -1.37371942       1.28227898       0.00000000
H       -2.16834563      -0.21079260      -1.43766607       0.00000000
H       -0.85937896       2.46684359      -1.86336133       0.00000000
Si       0.48765744       2.04626837       2.94984442       0.00000000
Si      -0.70620409       1.67242916      -3.14111816       0.00000000
Si       2.12066480       0.31084578       3.03428443       0.00000000
Si       2.44600868      -0.35637633      -2.81342237       0.00000000
