10
Lattice="16.290000149 0.0 0.0 0.0 16.290000149 0.0 0.0 0.0 29.1751946751" Properties=species:S:1:pos:R:3:initial_magmoms:R:1 pbc="T T T"
Si      -1.37881819       1.36575361       1.31195015       0.00000000
Si      -1.37828062      -1.33524244      -1.34491812       0.00000000
Si       1.35593074       1.35552349      -1.35822201       0.00000000
Si       1.35435061      -1.35187453       1.36939611       0.00000000
Si      -0.00100998       2.70547580       2.64420624       0.00000000
Si      -0.00768888      -2.68094306      -2.68376781       0.00000000
Si      -2.73153980       0.01303200       2.67390659       0.00000000
Si       2.71388144      -2.70326036       0.01508358       0.00000000
Si       0.00027693       2.72609894      -2.69713005       0.00000000
Si      -2.72740214      -2.70063767       0.01172843       0.00000000
