10
Lattice="16.290000149 0.0 0.0 0.0 16.290000149 0.0 0.0 0.0 29.1751946751" Properties=species:S:1:pos:R:3:initial_magmoms:R:1 pbc="T T T"
Si       1.72468748       0.93978640       1.27681418       0.00000000
Si      -0.86534110      -1.72775977       1.38323653       0.00000000
Si       0.73099747      -0.63379504      -2.17950112       0.00000000
Si      -1.70551415       1.66829150       0.12720647       0.00000000
H       -2.91779967      -0.94931605      -0.67251479       0.00000000
Si       0.46675737       2.34064496       2.64148974       0.00000000
Si      -2.36359757      -0.49223493       2.66298602       0.00000000
Si      -0.84276316      -2.32201735      -2.62054254       0.00000000
Si       2.97597126      -1.13971357      -1.89848564       0.00000000
Si      -2.35854767       2.09217359      -2.00453747       0.00000000
