10
Lattice="16.290000149 0.0 0.0 0.0 16.290000149 0.0 0.0 0.0 29.1751946751" Properties=species:S:1:pos:R:3:initial_magmoms:R:1 pbc="T T T"
Si      -1.21880152      -1.32095611       1.49382832       0.00000000
Si       1.53989371       0.72200539       1.60294355       0.00000000
Si       0.62056756      -1.07947315      -2.03914188       0.00000000
Si      -1.48628332       1.86727385      -0.35838809       0.00000000
H        1.87424597      -1.85122820       0.71429629       0.00000000
H        3.08952885       0.33387984      -1.02717108       0.00000000
Si      -1.86043205       1.22067487      -2.58381359       0.00000000
Si       0.30797874       2.57228876       2.26904242       0.00000000
Si       3.15812604       1.40361157       0.03839456       0.00000000
Si      -2.55259415       0.22631697       2.64759057       0.00000000
