10
Lattice="16.290000149 0.0 0.0 0.0 16.290000149 0.0 0.0 0.0 29.1751946751" Properties=species:S:1:pos:R:3:initial_magmoms:R:1 pbc="T T T"
Si      -1.46614237       1.20899494       1.33864546       0.00000000
Si       1.18140620       1.52627527      -1.31618056       0.00000000
Si      -0.22709726      -1.85054402      -1.43854132       0.00000000
Si       1.43725694      -1.18617265       1.44516409       0.00000000
H       -2.94581195      -1.25547031      -1.42444970       0.00000000
Si       2.08431204      -2.02882178      -2.03403622       0.00000000
Si      -2.61750329      -0.43039809       2.52003662       0.00000000
Si       2.53989447       0.17774019      -2.64654026       0.00000000
Si       3.15897963      -1.94264768       0.06628604       0.00000000
Si      -0.00670659       2.59393817       2.68718131       0.00000000
