10
Lattice="16.290000149 0.0 0.0 0.0 16.290000149 0.0 0.0 0.0 29.1751946751" Properties=species:S:1:pos:R:3:initial_magmoms:R:1 pbc="T T T"
Si       1.31988097      -1.44102970       1.27583126       0.00000000
Si      -1.34928442      -1.36182772      -1.34824410       0.00000000
Si       1.38868993       1.35940051      -1.31358397       0.00000000
Si      -1.29007027       1.36897903       1.41234200       0.00000000
Si       2.74323603      -0.04887000       2.45623046       0.00000000
Si       0.02174715       2.70018155      -2.67075567       0.00000000
Si      -2.65790900       2.71780733       0.05759183       0.00000000
Si      -2.71494029      -0.00601101      -2.67971246       0.00000000
Si      -0.06167394      -2.78049126       2.61535198       0.00000000
Si       2.74040157      -0.01058850      -2.66492063       0.00000000
