10
Lattice="16.290000149 0.0 0.0 0.0 16.290000149 0.0 0.0 0.0 29.1751946751" Properties=species:S:1:pos:R:3:initial_magmoms:R:1 pbc="T T T"
Si      -1.22311837       1.32344848      -1.51684755       0.00000000
Si       1.33939639       1.45352413       1.29485349       0.00000000
Si      -1.61722234      -1.03035880       1.39334895       0.00000000
Si       1.78196312      -1.54554634      -0.63000915       0.00000000
H       -0.85024027      -1.74563642      -1.75730950       0.00000000
H       -0.19898235      -2.16782435      -1.71249640       0.00000000
H        1.34921926       0.61561540      -2.84994972       0.00000000
Si      -0.04926096      -2.31050846       2.51717745       0.00000000
Si       0.03697830       1.07751835      -3.45393460       0.00000000
Si       1.02218122      -3.41953167       0.64938148       0.00000000
