10
Lattice="16.290000149 0.0 0.0 0.0 16.290000149 0.0 0.0 0.0 29.1751946751" Properties=species:S:1:pos:R:3:initial_magmoms:R:1 pbc="T T T"
Si      -1.33899566       1.35418771      -1.36677034       0.00000000
Si       1.35149986       1.38223909       1.32685868       0.00000000
Si       1.38838042      -1.35314515      -1.33073898       0.00000000
Si      -1.35224594      -1.36324495       1.36236489       0.00000000
Si       2.66069459      -0.04561200       2.62521319       0.00000000
Si      -2.66867669       2.69933447       0.02692870       0.00000000
Si       0.03974760      -2.71420724      -2.68140462       0.00000000
Si      -2.69289992       0.00172674      -2.72429215       0.00000000
Si      -2.69434973      -2.72901485       0.01239946       0.00000000
Si       0.01971090       2.70948314      -2.72502153       0.00000000
