10
Lattice="16.290000149 0.0 0.0 0.0 16.290000149 0.0 0.0 0.0 29.1751946751" Properties=species:S:1:pos:R:3:initial_magmoms:R:1 pbc="T T T"
Si       1.35133696      -1.36036162       1.30742800       0.00000000
Si       1.37145511       1.25349922      -1.43384412       0.00000000
Si      -1.31124727      -1.42112332      -1.33269372       0.00000000
Si      -1.19604439       1.40670667       1.47325981       0.00000000
Si      -2.56861700       2.64143981       0.02687035       0.00000000
Si       2.72474687       2.59535540      -0.12314850       0.00000000
Si      -2.64148543      -0.06413373      -2.69669242       0.00000000
Si       2.74194911      -0.00566892       2.59539614       0.00000000
Si      -2.55979433      -0.01837512       2.77777029       0.00000000
Si      -0.00923643      -2.66634722       2.69435840       0.00000000
