10
Lattice="16.28999089631971 0.0 0.0 0.0 16.28999089631971 0.0 0.0 0.0 34.69518985606464" Properties=species:S:1:pos:R:3:initial_magmoms:R:1 pbc="T T T"
Si       0.79386709       1.93958677      -1.03022289       0.00000000
Si       1.47008128      -1.20297319       1.47333553       0.00000000
Si      -1.36076953      -1.38959143      -1.44955339       0.00000000
Si      -1.27189129       1.49809519       1.47511886       0.00000000
Si       2.80542145      -2.60072035      -0.01931135       0.00000000
Si       0.10727454      -2.55734008       2.85582512       0.00000000
Si      -1.00902541       3.51725698      -1.21543012       0.00000000
Si      -2.79741721      -2.66632018      -0.05103318       0.00000000
Si      -2.60573278       0.16151861       2.86401319       0.00000000
Si      -2.84294776       2.70779059      -0.02856804       0.00000000
