10
Lattice="16.28999089631971 0.0 0.0 0.0 16.28999089631971 0.0 0.0 0.0 34.69518985606464" Properties=species:S:1:pos:R:3:initial_magmoms:R:1 pbc="T T T"
Si       1.35588186       1.35573525      -1.35630512       0.00000000
Si       1.35659862      -1.35689218       1.35734598       0.00000000
Si      -1.35819504       1.35827649       1.35769293       0.00000000
Si      -1.35959598      -1.35992057      -1.35751945       0.00000000
Si       0.00151497      -2.71159172      -2.71347762       0.00000000
Si       2.71445157       0.00317655      -2.71396335       0.00000000
Si       2.71425609      -0.00097251       2.71431030       0.00000000
Si       2.71461447      -2.71405151       0.00006939       0.00000000
Si      -0.00190593       2.71427238       2.71507360       0.00000000
Si      -0.00105885      -2.71478456       2.71476134       0.00000000
