10
Lattice="16.28999089631971 0.0 0.0 0.0 16.28999089631971 0.0 0.0 0.0 34.69518985606464" Properties=species:S:1:pos:R:3:initial_magmoms:R:1 pbc="T T T"
Si       1.15064415      -1.70057516       1.01868604       0.00000000
Si      -2.04791364       0.44575956       1.10448729       0.00000000
Si       0.94019364       2.13672672      -0.45058668       0.00000000
Si       0.12173517      -0.90247252      -2.21605240       0.00000000
Si      -1.11607677       2.44196874      -1.70457563       0.00000000
Si       1.34192133      -0.88040608       3.19480426       0.00000000
Si      -3.37279563      -1.31481803       0.35826273       0.00000000
Si       3.31868025      -1.59082927       0.15369978       0.00000000
Si      -2.89520541       2.32805277      -0.02681940       0.00000000
Si      -0.96987402       0.75820176      -3.52260459       0.00000000
