10
Lattice="16.28999089631971 0.0 0.0 0.0 16.28999089631971 0.0 0.0 0.0 34.69518985606464" Properties=species:S:1:pos:R:3:initial_magmoms:R:1 pbc="T T T"
Si      -2.04503031       0.61752132       1.03787249       0.00000000
Si       0.70841952       2.12032269      -0.82907672       0.00000000
Si      -0.51155487      -1.27461105      -1.98921513       0.00000000
Si       2.23580250      -0.90735300       0.97916820       0.00000000
Si      -2.95360506       1.39318596      -1.07274117       0.00000000
Si      -1.36524861       2.93342175      -1.82555782       0.00000000
Si      -2.55652002      -0.25501995      -2.69682392       0.00000000
Si      -1.34283357      -3.42231886      -1.20572791       0.00000000
Si      -1.52327790       2.01321594       3.07406493       0.00000000
Si       2.16727047      -3.33301708       0.66444795       0.00000000
