10
Lattice="16.28999089631971 0.0 0.0 0.0 16.28999089631971 0.0 0.0 0.0 34.69518985606464" Properties=species:S:1:pos:R:3:initial_magmoms:R:1 pbc="T T T"
Si      -1.17869553       1.45569069       1.48216893       0.00000000
Si       1.71458766       0.93924882      -1.40094887       0.00000000
Si       1.50967575      -1.25910297       1.45305271       0.00000000
Si      -2.01131001      -0.71006481      -1.44702411       0.00000000
Si      -2.69133606      -2.55608019       0.03988561       0.00000000
Si      -1.49942934       1.96983567      -2.76665639       0.00000000
Si       0.60053085       1.17775071      -3.52568349       0.00000000
Si      -2.72697858       2.60514567       0.18472423       0.00000000
Si      -2.54830986       0.10757916       2.83875161       0.00000000
Si       2.74657545       2.67296094      -0.03027157       0.00000000
