10
Lattice="16.28999089631971 0.0 0.0 0.0 16.28999089631971 0.0 0.0 0.0 34.69518985606464" Properties=species:S:1:pos:R:3:initial_magmoms:R:1 pbc="T T T"
Si      -1.33788141      -1.35047358       1.38136200       0.00000000
Si       1.37441988       1.36669842       1.38344371       0.00000000
Si       1.37707515      -1.42607547      -1.41909304       0.00000000
Si      -1.50967575       1.25910297      -1.45305271       0.00000000
Si       0.20491191       2.19835179      -2.85400158       0.00000000
Si      -2.68837128       2.71479366       0.02911622       0.00000000
Si      -2.70252729      -2.70990666      -0.01461362       0.00000000
Si       2.71119357       2.71336014       0.00700843       0.00000000
Si       2.72404638      -2.71065600       0.02607345       0.00000000
Si      -2.70192456       0.00770517       2.74228158       0.00000000
