10
Lattice="16.28999089631971 0.0 0.0 0.0 16.28999089631971 0.0 0.0 0.0 34.69518985606464" Properties=species:S:1:pos:R:3:initial_magmoms:R:1 pbc="T T T"
Si      -0.60020505       2.13245711       0.84756927       0.00000000
Si      -2.12568862      -1.07660838      -0.16619005       0.00000000
Si       0.93310749      -0.64583823       2.11758740       0.00000000
Si       1.37419182       0.16240641      -2.28683063       0.00000000
Si      -2.01518866       1.05127352       2.53309723       0.00000000
Si      -1.39246106      -3.35035683      -0.20026075       0.00000000
Si      -3.13083116       0.12343259      -1.94869112       0.00000000
Si       1.41069771       2.99703257       1.73250527       0.00000000
Si      -0.83538378      -0.66662427       3.64875638       0.00000000
Si       2.25798948       1.11473936       2.86381196       0.00000000
