10
Lattice="16.28999089631971 0.0 0.0 0.0 16.28999089631971 0.0 0.0 0.0 34.69518985606464" Properties=species:S:1:pos:R:3:initial_magmoms:R:1 pbc="T T T"
Si       0.80697402       1.77847704      -1.27813681       0.00000000
Si      -0.35183142       0.79744437       2.17500797       0.00000000
Si      -1.93653891      -0.84960495      -1.18171883       0.00000000
Si      -0.47907261      -2.12939622      -2.75518126       0.00000000
Si       2.24819919       0.58212315      -2.76628373       0.00000000
Si      -2.67577911       0.55671075       2.70175064       0.00000000
Si       0.95910633      -3.46988403      -1.36196044       0.00000000
Si       1.46505744       3.72159711      -0.11182266       0.00000000
Si      -3.02232931      -2.69768916      -0.02831129       0.00000000
Si       1.38443823       0.18814950       3.81838125       0.00000000
