10
Lattice="16.28999089631971 0.0 0.0 0.0 16.28999089631971 0.0 0.0 0.0 34.69518985606464" Properties=species:S:1:pos:R:3:initial_magmoms:R:1 pbc="T T T"
Si       2.04503031      -0.61752132      -1.03787249       0.00000000
Si      -1.81144800      -1.53736875       0.09839561       0.00000000
Si      -0.90857475       0.77566464      -2.11061366       0.00000000
Si       0.52175241       1.39569462       2.03619244       0.00000000
Si      -2.04398775      -1.43462772       2.42669122       0.00000000
Si      -0.15827364      -0.45032076       3.52310216       0.00000000
Si       2.75344983       1.50280137      -1.86694921       0.00000000
Si       0.67978170       2.31590043      -2.86343031       0.00000000
Si      -0.51148971      -0.87254127      -3.73469641       0.00000000
Si       1.53347544      -1.89213237      -3.02708762       0.00000000
