10
Lattice="16.28999089631971 0.0 0.0 0.0 16.28999089631971 0.0 0.0 0.0 34.69518985606464" Properties=species:S:1:pos:R:3:initial_magmoms:R:1 pbc="T T T"
Si      -1.10776887       1.57022568       1.39164913       0.00000000
Si       0.94916943       1.77352488      -1.26882635       0.00000000
Si       1.61647299      -1.15479810       1.37856904       0.00000000
Si      -1.55901816      -1.39111713      -1.47972088       0.00000000
Si      -2.44508013       0.22045257       2.76702274       0.00000000
Si       0.27173349      -2.49823440       2.76396956       0.00000000
Si      -2.62487286      -2.71581993       0.11230145       0.00000000
Si      -2.46339009       2.88833103      -0.11803657       0.00000000
Si       2.73740418       2.74747140       0.05268814       0.00000000
Si       2.84868117      -2.64800466      -0.10269435       0.00000000
