10
Lattice="16.28999089631971 0.0 0.0 0.0 16.28999089631971 0.0 0.0 0.0 34.69518985606464" Properties=species:S:1:pos:R:3:initial_magmoms:R:1 pbc="T T T"
Si      -0.71415360       1.79286111      -1.39384534       0.00000000
Si      -1.38468258      -0.94198554       1.71671895       0.00000000
Si       2.06632134       0.56387835       1.12235532       0.00000000
Si       0.28123056      -1.73309310      -1.71925170       0.00000000
Si       0.35833113      -3.69711324      -0.41321994       0.00000000
Si      -3.12520392       0.90288954       1.84974039       0.00000000
Si      -1.43726670      -3.28582332       1.07128398       0.00000000
Si      -1.60914249       2.84275161       1.85744272       0.00000000
Si       1.19110851       2.44198503      -2.64707099       0.00000000
Si       3.06434448      -1.54842966       1.62959928       0.00000000
