10
Lattice="16.28999089631971 0.0 0.0 0.0 16.28999089631971 0.0 0.0 0.0 34.69518985606464" Properties=species:S:1:pos:R:3:initial_magmoms:R:1 pbc="T T T"
Si      -1.06585470      -1.32470280       1.59202233       0.00000000
Si       0.16169454      -1.96001280      -1.35935830       0.00000000
Si      -1.72902060       0.96063759      -1.45973154       0.00000000
Si       1.55901816       1.39111713       1.47972088       0.00000000
Si      -2.04253794      -2.91182121       0.11858823       0.00000000
Si      -2.25536679       0.24272100       2.87740003       0.00000000
Si      -2.40709185       2.88714186      -0.07913977       0.00000000
Si       0.48242835      -2.47415778       2.88946703       0.00000000
Si      -0.78954372       1.70039907      -3.51257768       0.00000000
Si       2.50818759       3.16464201       0.21089452       0.00000000
