10
Lattice="16.28999089631971 0.0 0.0 0.0 16.28999089631971 0.0 0.0 0.0 34.69518985606464" Properties=species:S:1:pos:R:3:initial_magmoms:R:1 pbc="T T T"
Si      -0.63843768      -1.00355197      -2.04542137       0.00000000
Si      -0.34098228      -1.19153857       2.04136203       0.00000000
Si      -2.00713814       1.25452222       0.35281558       0.00000000
Si       2.19155886       1.06598176      -0.48864733       0.00000000
Si      -1.81824256       0.71434582      -3.16108051       0.00000000
Si      -1.24299053       3.44169907       0.74483675       0.00000000
Si      -0.73497222       0.58571998       3.61871032       0.00000000
Si       2.45493558       0.77781166      -2.83036578       0.00000000
Si       1.13005359      -0.98276593      -3.57659034       0.00000000
Si      -3.23531522       1.66299397      -1.59233663       0.00000000
