10
Lattice="16.28999089631971 0.0 0.0 0.0 16.28999089631971 0.0 0.0 0.0 34.69518985606464" Properties=species:S:1:pos:R:3:initial_magmoms:R:1 pbc="T T T"
Si       1.35659862      -1.35744570       1.35651329       0.00000000
Si       1.35607734       1.35796698      -1.35686024       0.00000000
Si      -1.35733167       1.35738054       1.35682555       0.00000000
Si      -1.35930276      -1.35871632      -1.35699902       0.00000000
Si       2.71023246      -0.00330687       2.71507360       0.00000000
Si      -2.71399545       0.00412137      -2.71389396       0.00000000
Si      -0.00057015       2.71469592       2.71469195       0.00000000
Si      -0.00026064      -2.71782360       2.71170816       0.00000000
Si      -2.71484253      -2.71515204       0.00017348       0.00000000
Si      -2.71502172       2.71503801      -0.00020817       0.00000000
