10
Lattice="16.28999089631971 0.0 0.0 0.0 16.28999089631971 0.0 0.0 0.0 34.69518985606464" Properties=species:S:1:pos:R:3:initial_magmoms:R:1 pbc="T T T"
Si       1.72996542      -0.97336008      -1.30766244       0.00000000
Si       1.12047507       1.29195990       1.66079028       0.00000000
Si      -1.00251918       1.74436578      -1.29780900       0.00000000
Si      -1.18392462      -1.71273060       1.39877206       0.00000000
Si       0.36945720      -2.31754572      -2.67739460       0.00000000
Si      -2.35383984       0.40298202      -2.67454960       0.00000000
Si       2.29400667      -0.53185221       2.73339267       0.00000000
Si       0.94545531      -3.23913618       1.35640921       0.00000000
Si       2.69687466       2.76983757       0.05398575       0.00000000
Si       2.96702802      -2.49357546       0.08968712       0.00000000
