10
Lattice="16.28999089631971 0.0 0.0 0.0 16.28999089631971 0.0 0.0 0.0 34.69518985606464" Properties=species:S:1:pos:R:3:initial_magmoms:R:1 pbc="T T T"
Si      -1.58651568       0.29149326      -1.72508050       0.00000000
Si      -0.45781416      -1.20138750       1.99750728       0.00000000
Si       1.93865661      -0.85331907      -1.09539715       0.00000000
Si       0.86260437       2.19028891       0.42623065       0.00000000
Si       0.99085554      -2.38088124      -2.50790851       0.00000000
Si      -0.18267606      -0.55706913      -3.58051090       0.00000000
Si      -2.19084210       2.58618804      -1.40387225       0.00000000
Si       1.43707122      -0.94633497       3.33441778       0.00000000
Si       3.11292126       2.07121227      -0.46946088       0.00000000
Si      -0.22900482       3.85096319      -0.88032154       0.00000000
