10
Lattice="16.28999089631971 0.0 0.0 0.0 16.28999089631971 0.0 0.0 0.0 34.69518985606464" Properties=species:S:1:pos:R:3:initial_magmoms:R:1 pbc="T T T"
Si      -0.33875055      -1.00186758      -2.04781534       0.00000000
Si       1.78862571      -1.02304458       1.07992308       0.00000000
Si      -1.71592344      -0.58937220       1.56291509       0.00000000
Si       0.70464024       2.12362956      -0.95918375       0.00000000
Si      -2.51369361       1.63937673       1.61846212       0.00000000
Si       1.90249281      -0.90699462      -2.77141862       0.00000000
Si       1.35987291      -0.48005001       3.35953711       0.00000000
Si      -1.31898501      -3.09040522      -1.62529708       0.00000000
Si       1.84306689       1.49084451      -2.95960543       0.00000000
Si      -0.53331831       2.92275180       2.41069253       0.00000000
