10
Lattice="16.28999089631971 0.0 0.0 0.0 16.28999089631971 0.0 0.0 0.0 34.69518985606464" Properties=species:S:1:pos:R:3:initial_magmoms:R:1 pbc="T T T"
Si      -0.01273878      -1.80648511      -1.49029802       0.00000000
Si      -1.24457229       0.01197315       2.00257278       0.00000000
Si      -0.02583594       1.76904676      -1.61374357       0.00000000
Si       2.24687970      -0.50419863       0.80055726       0.00000000
Si      -1.17604026       2.43763723       2.31729303       0.00000000
Si       1.59857028      -1.21569568      -3.14834737       0.00000000
Si       1.50302943       1.14165370      -3.32491129       0.00000000
Si       1.88737569      -1.89116053       2.84011513       0.00000000
Si       1.46134332       3.44216008       1.13366596       0.00000000
Si      -2.22008265       2.21164606      -2.38099343       0.00000000
