10
Lattice="16.28999089631971 0.0 0.0 0.0 16.28999089631971 0.0 0.0 0.0 34.69518985606464" Properties=species:S:1:pos:R:3:initial_magmoms:R:1 pbc="T T T"
Si      -1.87030377      -0.93466318       1.23335366       0.00000000
Si       0.85004478       1.87258437       1.32371040       0.00000000
Si      -0.28893573       0.92712906      -2.25217012       0.00000000
Si       1.66987161      -1.98330261       0.09912425       0.00000000
Si      -0.35746776      -1.49853502      -2.56689036       0.00000000
Si      -0.52370721      -2.12594993       2.77314093       0.00000000
Si       2.19701601       0.58800384       2.76887689       0.00000000
Si       3.36940731      -0.89711473       1.35637247       0.00000000
Si       2.60605791       2.88202680       0.06266975       0.00000000
Si      -2.84983776      -2.66342219      -0.20019136       0.00000000
