10
Lattice="16.28999089631971 0.0 0.0 0.0 16.28999089631971 0.0 0.0 0.0 34.69518985606464" Properties=species:S:1:pos:R:3:initial_magmoms:R:1 pbc="T T T"
Si      -1.88327061       0.83450412      -1.26616697       0.00000000
Si       0.82134180      -1.88032212      -1.28347988       0.00000000
Si       1.67757678       1.77223797       0.09367706       0.00000000
Si       0.29587527      -1.18941435       2.11456892       0.00000000
Si       2.18810538      -0.53926416      -2.64859758       0.00000000
Si      -0.54162621       2.18735604      -2.65036703       0.00000000
Si       1.08703170       0.59318406       3.42597844       0.00000000
Si       2.95656984      -1.95074379       1.37670590       0.00000000
Si       3.52074141       0.82352466      -1.26373830       0.00000000
Si       0.81977796       3.51688068      -1.28053078       0.00000000
