10
Lattice="16.28999089631971 0.0 0.0 0.0 16.28999089631971 0.0 0.0 0.0 34.69518985606464" Properties=species:S:1:pos:R:3:initial_magmoms:R:1 pbc="T T T"
Si      -1.71458766      -0.93924882       1.40094887       0.00000000
Si      -1.11405681       0.23850189      -2.12473461       0.00000000
Si       1.03198779       1.73371212       1.37067730       0.00000000
Si       2.35875942      -1.80990045      -1.93280072       0.00000000
Si      -0.20491191      -2.19835179       2.85400158       0.00000000
Si      -3.21401700       1.03058685      -1.36570752       0.00000000
Si       2.50628166       0.51500835       2.86101002       0.00000000
Si       2.92817637      -2.61498483       0.17386790       0.00000000
Si       0.00438201       1.85513778      -3.54428910       0.00000000
Si       2.77042401       2.87415873       0.27431875       0.00000000
