10
Lattice="16.28999089631971 0.0 0.0 0.0 16.28999089631971 0.0 0.0 0.0 34.69518985606464" Properties=species:S:1:pos:R:3:initial_magmoms:R:1 pbc="T T T"
Si      -1.28855529      -1.02038931      -1.70065507       0.00000000
Si      -1.96157664       0.94133394       0.94305048       0.00000000
Si       0.52825212      -1.56817314       1.85813663       0.00000000
Si       1.39145922       1.69477902      -1.47437292       0.00000000
Si       1.91744703       0.08964387       2.55717570       0.00000000
Si      -1.01377557       2.46889611       2.35556184       0.00000000
Si       1.52795313      -3.32817732       0.59526571       0.00000000
Si      -3.31012800      -1.76595003      -0.43393298       0.00000000
Si       0.17606232      -2.22304743      -3.10275787       0.00000000
Si      -3.36619818      -0.80058834       1.86774720       0.00000000
