10
Lattice="16.28999089631971 0.0 0.0 0.0 16.28999089631971 0.0 0.0 0.0 34.69518985606464" Properties=species:S:1:pos:R:3:initial_magmoms:R:1 pbc="T T T"
Si       2.12740884      -1.02700305       0.23356815       0.00000000
Si      -1.41416748      -0.80286894       1.76175334       0.00000000
Si       0.27955269       2.39958216      -0.07036188       0.00000000
Si      -0.82510479      -0.84820401      -2.13056341       0.00000000
Si       1.36368477      -3.35430648       0.28814371       0.00000000
Si      -3.12608358      -0.27072351      -1.95635876       0.00000000
Si      -3.17508390       0.75113190       1.78624815       0.00000000
Si       0.64093005       3.03407766      -2.31975639       0.00000000
Si      -2.42258364      -2.84258871       1.10285662       0.00000000
Si       2.32968177       3.01397580       1.04269512       0.00000000
