10
Lattice="16.28999089631971 0.0 0.0 0.0 16.28999089631971 0.0 0.0 0.0 34.69518985606464" Properties=species:S:1:pos:R:3:initial_magmoms:R:1 pbc="T T T"
Si       1.96375950       1.02330522      -0.64703096       0.00000000
Si      -0.05654259      -1.87020603      -1.36310538       0.00000000
Si       0.71700435      -0.35603424       2.19111769       0.00000000
Si      -1.91102877       1.66812858      -0.15970205       0.00000000
Si      -1.06471440       1.45575585       2.09505394       0.00000000
Si      -2.01627846      -0.90412758      -2.43373015       0.00000000
Si      -1.47637899      -3.22830333      -0.11206553       0.00000000
Si       1.26465786       3.29079177      -0.52087918       0.00000000
Si       2.46378105      -0.18306702      -2.66441859       0.00000000
Si       0.03047859      -2.29622211       3.28428116       0.00000000
