10
Lattice="16.28999089631971 0.0 0.0 0.0 16.28999089631971 0.0 0.0 0.0 34.69518985606464" Properties=species:S:1:pos:R:3:initial_magmoms:R:1 pbc="T T T"
Si       1.81447794      -1.34086248      -0.71017624       0.00000000
Si      -1.11843882      -1.61663589       1.41955449       0.00000000
Si      -1.33257087       0.87884550      -1.89508702       0.00000000
Si       1.91972763       1.23139368       1.56385186       0.00000000
Si       0.60932745      -3.21681888      -1.50174744       0.00000000
Si      -0.97391394       3.21062868      -1.57419103       0.00000000
Si      -1.49858226      -3.39734466      -0.40492779       0.00000000
Si       2.66853006      -0.31353363      -2.63392151       0.00000000
Si      -3.21839901      -0.82455093       2.17858158       0.00000000
Si       1.36425492       3.49633899      -1.37903048       0.00000000
