10
Lattice="16.28999089631971 0.0 0.0 0.0 16.28999089631971 0.0 0.0 0.0 34.69518985606464" Properties=species:S:1:pos:R:3:initial_magmoms:R:1 pbc="T T T"
Si       1.12229955      -1.53784116      -1.35827928       0.00000000
Si      -1.34418564      -1.35109260       1.35640227       0.00000000
Si       1.36875096       1.36367567       1.35591653       0.00000000
Si      -1.34659656       1.19128674      -1.53978726       0.00000000
Si       2.19357882       0.14264731      -2.67401668       0.00000000
Si       0.52370721       2.12594993      -2.77314093       0.00000000
Si      -0.66593520      -2.51178768      -2.67979378       0.00000000
Si      -2.32613055      -0.53747226      -2.97333229       0.00000000
Si      -2.70529659       0.00057854       2.71236043       0.00000000
Si      -2.70585045       2.71470311      -0.04495111       0.00000000
