10
Lattice="16.28999089631971 0.0 0.0 0.0 16.28999089631971 0.0 0.0 0.0 34.69518985606464" Properties=species:S:1:pos:R:3:initial_magmoms:R:1 pbc="T T T"
Si       1.35456237       1.35560493       1.35682555       0.00000000
Si       1.35725022      -1.35703845      -1.35797049       0.00000000
Si      -1.35786924       1.35796698      -1.35769293       0.00000000
Si      -1.36273995      -1.36076886       1.35738067       0.00000000
Si      -0.00151497       2.71482454      -2.71382457       0.00000000
Si      -2.71415835       0.00314397       2.71496951       0.00000000
Si       2.71474479       2.71475915      -0.00038165       0.00000000
Si       2.71544526      -2.71407690      -0.00031226       0.00000000
Si       2.71440270      -0.00228060      -2.71559403       0.00000000
Si       0.00542457      -2.71068858       2.71951459       0.00000000
