10
Lattice="16.28999089631971 0.0 0.0 0.0 16.28999089631971 0.0 0.0 0.0 34.69518985606464" Properties=species:S:1:pos:R:3:initial_magmoms:R:1 pbc="T T T"
Si      -0.94780107      -1.52756217      -1.41251136       0.00000000
Si       1.65117069      -0.88645293       1.43117738       0.00000000
Si      -1.93865661       0.85331907       1.09539715       0.00000000
Si       1.27189062       1.71079209      -1.38236122       0.00000000
Si       1.17426465       2.92453134       0.62593627       0.00000000
Si      -2.12133267       0.29624994      -2.48511375       0.00000000
Si       2.38764159       1.33141428       1.82760484       0.00000000
Si       1.01377557      -2.46889611      -2.35556184       0.00000000
Si      -1.07605224       3.04360798       1.52162779       0.00000000
Si      -3.52517229       1.14481233      -0.62968335       0.00000000
