10
Lattice="16.28999089631971 0.0 0.0 0.0 16.28999089631971 0.0 0.0 0.0 34.69518985606464" Properties=species:S:1:pos:R:3:initial_magmoms:R:1 pbc="T T T"
Si       1.83392235       0.80946639      -1.18686208       0.00000000
Si      -1.10969109       1.52257743       1.51293664       0.00000000
Si       1.57105647      -1.20969540       1.50368690       0.00000000
Si      -1.98682614      -0.89502147      -1.35908910       0.00000000
Si      -2.49592122       2.83361292       0.11746757       0.00000000
Si      -2.67001245      -2.68269422       0.12149221       0.00000000
Si      -3.43336185       1.09644732      -1.17221050       0.00000000
Si      -2.47985928       0.16376337       2.89195672       0.00000000
Si       2.77499077       2.65829994       0.08377158       0.00000000
Si       3.63681485      -0.76820382      -1.00165485       0.00000000
