10
Lattice="16.28999089631971 0.0 0.0 0.0 16.28999089631971 0.0 0.0 0.0 34.69518985606464" Properties=species:S:1:pos:R:3:initial_magmoms:R:1 pbc="T T T"
Si       0.08265546      -1.10311645      -1.99181727       0.00000000
Si      -2.24124336      -0.09487296       0.72360328       0.00000000
Si      -0.05942592       2.39783913      -0.18818681       0.00000000
Si       1.80682164      -1.51180322       0.73890387       0.00000000
Si      -1.90249281       0.90699462       2.77141862       0.00000000
Si      -0.66362202      -3.30373322      -1.26939362       0.00000000
Si      -1.19785257       3.03062418       1.81223486       0.00000000
Si       2.31309855      -1.13812854      -2.71559403       0.00000000
Si       2.16344232       3.13383762      -0.00270623       0.00000000
Si      -0.11386710      -0.11604996       3.85134170       0.00000000
