10
Lattice="16.28999089631971 0.0 0.0 0.0 16.28999089631971 0.0 0.0 0.0 34.69518985606464" Properties=species:S:1:pos:R:3:initial_magmoms:R:1 pbc="T T T"
Si       1.35533022      -1.35684297       1.35797049       0.00000000
Si      -1.35953082       1.35728280       1.35786640       0.00000000
Si      -1.34754138      -1.35578412      -1.37995684       0.00000000
Si       1.33973228       1.35402480      -1.38938353       0.00000000
Si       2.53714048      -0.22006161      -2.80912190       0.00000000
Si       2.71348136       0.00102627       2.71510829       0.00000000
Si      -0.00203625      -2.71417464       2.71493482       0.00000000
Si       2.71622622      -2.71300176      -0.00260214       0.00000000
Si      -0.00188964       2.71668330       2.71479604       0.00000000
Si      -2.71770957      -2.71459818      -0.00093677       0.00000000
