10
Lattice="16.28999089631971 0.0 0.0 0.0 16.28999089631971 0.0 0.0 0.0 34.69518985606464" Properties=species:S:1:pos:R:3:initial_magmoms:R:1 pbc="T T T"
Si       0.25824537       2.08500597      -1.11087121       0.00000000
Si      -2.15796888      -0.07004700       1.03187022       0.00000000
Si       1.03724946      -1.35009891       1.74572415       0.00000000
Si       1.58016258      -1.46636064      -1.36636673       0.00000000
Si      -2.78860365       0.38775087      -1.56315796       0.00000000
Si       1.77455115       0.22224447      -3.04453931       0.00000000
Si       0.91735506       3.14748864       1.51781132       0.00000000
Si      -2.45144952      -2.39109507       1.27289784       0.00000000
Si      -1.70396658       2.20631760      -2.57164360       0.00000000
Si      -1.87176987       0.72855396       3.22773001       0.00000000
