10
Lattice="16.28999089631971 0.0 0.0 0.0 16.28999089631971 0.0 0.0 0.0 34.69518985606464" Properties=species:S:1:pos:R:3:initial_magmoms:R:1 pbc="T T T"
Si       2.14579408      -0.90947070       0.18721535       0.00000000
Si      -0.02179602       0.36360909       2.35545776       0.00000000
Si      -1.98780354      -1.19381265      -0.59824949       0.00000000
Si       0.12979872       2.03442552      -1.26026878       0.00000000
Si       0.34569009       2.68566714       2.11508935       0.00000000
Si      -0.94449420       3.38962320       0.29886453       0.00000000
Si      -1.31577588       1.59123978      -3.05345598       0.00000000
Si       1.73488500      -3.05903394       1.16097109       0.00000000
Si       3.29647602       0.46915200       1.74627927       0.00000000
Si      -1.17999873      -3.32117262      -1.36990564       0.00000000
