10
Lattice="16.28999089631971 0.0 0.0 0.0 16.28999089631971 0.0 0.0 0.0 34.69518985606464" Properties=species:S:1:pos:R:3:initial_magmoms:R:1 pbc="T T T"
Si       0.17831034      -1.86121395       1.41098477       0.00000000
Si      -0.57440169       1.68070446       1.54830841       0.00000000
Si       2.23401060       0.02373453      -0.75385751       0.00000000
Si      -1.49035581       0.40220010      -1.81518396       0.00000000
Si      -0.35277624       3.44989620      -0.00419812       0.00000000
Si      -2.36602965       0.52641135       2.60408363       0.00000000
Si       1.92143808      -1.09801116       2.83553537       0.00000000
Si      -1.24800948       2.75014296      -2.07917980       0.00000000
Si      -1.83980889      -1.81056834       2.68988488       0.00000000
Si       3.58381629      -0.51665364       1.22432454       0.00000000
