10
Lattice="16.28999089631971 0.0 0.0 0.0 16.28999089631971 0.0 0.0 0.0 34.69518985606464" Properties=species:S:1:pos:R:3:initial_magmoms:R:1 pbc="T T T"
Si       1.07429292      -1.35519768      -1.55913331       0.00000000
Si       1.29018429      -0.70395606       1.81622481       0.00000000
Si      -0.30450897       2.33484570      -0.21070401       0.00000000
Si      -2.33582310      -0.39768777       0.12316799       0.00000000
Si      -2.63951757       1.95214473      -0.18194168       0.00000000
Si       0.94449420      -3.38962320      -0.29886453       0.00000000
Si       0.92269818      -3.02601411       2.05659322       0.00000000
Si       3.49174262       0.16757523       1.50615373       0.00000000
Si       3.06428748      -0.15275133      -2.27135657       0.00000000
Si      -0.37128168      -1.79838342      -3.35232051       0.00000000
