10
Lattice="16.28999089631971 0.0 0.0 0.0 16.28999089631971 0.0 0.0 0.0 34.69518985606464" Properties=species:S:1:pos:R:3:initial_magmoms:R:1 pbc="T T T"
Si       1.43664768       1.27672875      -1.39852021       0.00000000
Si      -1.17071343       1.45845999       1.52838989       0.00000000
Si       1.53510434      -1.26384336       1.52036142       0.00000000
Si      -1.61948664      -1.12438467      -1.55756305       0.00000000
Si      -2.51004465      -2.54360205       0.12909047       0.00000000
Si       2.40464413      -0.34893180      -2.79892294       0.00000000
Si      -2.71554300       2.69141655       0.14395736       0.00000000
Si      -2.52677448       0.11328066       2.91168094       0.00000000
Si       2.79741721       2.66632018       0.05103318       0.00000000
Si       0.19135863      -2.60560179       2.91775260       0.00000000
