10
Lattice="16.28999089631971 0.0 0.0 0.0 16.28999089631971 0.0 0.0 0.0 34.69518985606464" Properties=species:S:1:pos:R:3:initial_magmoms:R:1 pbc="T T T"
Si      -1.35606105      -1.34517933       1.38329105       0.00000000
Si       1.36239786       1.36937880       1.38665649       0.00000000
Si      -1.54482957       1.23295656      -1.38443253       0.00000000
Si       1.17071343      -1.45845999      -1.52838989       0.00000000
Si       2.69623935       2.70595538      -0.00223784       0.00000000
Si       2.70581777      -2.72230335      -0.00802847       0.00000000
Si      -2.72303640      -2.70928764       0.01857582       0.00000000
Si      -2.71722087       2.71807514       0.02807189       0.00000000
Si       0.00324171      -2.70967860       2.74438411       0.00000000
Si      -2.71267596       0.00742654       2.74615357       0.00000000
