10
Lattice="16.28999089631971 0.0 0.0 0.0 16.28999089631971 0.0 0.0 0.0 34.69518985606464" Properties=species:S:1:pos:R:3:initial_magmoms:R:1 pbc="T T T"
Si       1.35177678      -1.35874890      -1.36366050       0.00000000
Si       1.33911945       1.35812988       1.38083463       0.00000000
Si      -1.36471104       1.35739683      -1.36237678       0.00000000
Si      -1.36497168      -1.37860641       1.40085377       0.00000000
Si       2.70419692      -2.70216891      -0.00544715       0.00000000
Si      -0.30564927       2.61923652       2.76853892       0.00000000
Si      -2.71384884      -2.70889668       0.00031226       0.00000000
Si       2.70962320       0.00205254      -2.72020849       0.00000000
Si       2.71253740       2.71757884      -0.00385117       0.00000000
Si      -0.00382815      -2.71228500      -2.71951459       0.00000000
