10
Lattice="16.28999089631971 0.0 0.0 0.0 16.28999089631971 0.0 0.0 0.0 34.69518985606464" Properties=species:S:1:pos:R:3:initial_magmoms:R:1 pbc="T T T"
Si      -2.29110705       0.09648567       0.35174003       0.00000000
Si       0.38998260      -0.66609810      -2.24994962       0.00000000
Si       0.74627748       2.20061677      -0.72242365       0.00000000
Si       0.58963284      -1.50856803       1.93283541       0.00000000
Si       0.66362202       3.30373322       1.26939362       0.00000000
Si       2.47044366       1.79192999       2.00829749       0.00000000
Si      -2.55785580       1.12032261       2.41551516       0.00000000
Si      -3.02757795      -2.12138154      -0.04468743       0.00000000
Si       0.19911267      -2.99006208      -2.36444381       0.00000000
Si       2.37548925       0.50215554      -3.00963593       0.00000000
