10
Lattice="16.28999089631971 0.0 0.0 0.0 16.28999089631971 0.0 0.0 0.0 34.69518985606464" Properties=species:S:1:pos:R:3:initial_magmoms:R:1 pbc="T T T"
Si      -2.08329552      -0.79374654      -0.74820219       0.00000000
Si      -0.10221975      -1.18793196       2.02810846       0.00000000
Si       1.52218647      -0.86964165      -1.60364727       0.00000000
Si       0.12701313       2.40517682       0.15151398       0.00000000
Si      -2.26717704      -0.50354019       2.79466441       0.00000000
Si       2.04770187       1.00942355      -2.96092385       0.00000000
Si      -1.76156802      -2.92398984      -1.65145726       0.00000000
Si       0.16689105      -2.29107447      -3.03638593       0.00000000
Si       1.42211700      -0.28670400       3.52458222       0.00000000
Si      -0.30173967       2.94817139       2.43112801       0.00000000
