10
Lattice="16.28999089631971 0.0 0.0 0.0 16.28999089631971 0.0 0.0 0.0 34.69518985606464" Properties=species:S:1:pos:R:3:initial_magmoms:R:1 pbc="T T T"
Si      -1.84703255      -0.83704536      -1.16905508       0.00000000
Si       2.01811923      -0.05064561      -1.27890011       0.00000000
Si      -0.52622076       2.33697969      -0.08580125       0.00000000
Si      -0.10765898      -1.17722943       2.09801930       0.00000000
Si      -2.09998367      -2.95593453      -0.23915408       0.00000000
Si       2.04274971      -0.84017304       2.93618617       0.00000000
Si       1.83980889       1.81056834      -2.68988488       0.00000000
Si      -2.29864022       2.47417407      -1.64233242       0.00000000
Si      -3.60768833       0.66169980      -0.85100409       0.00000000
Si       3.76124697       0.71255718       0.14565049       0.00000000
