10
Lattice="16.28999089631971 0.0 0.0 0.0 16.28999089631971 0.0 0.0 0.0 34.69518985606464" Properties=species:S:1:pos:R:3:initial_magmoms:R:1 pbc="T T T"
Si      -0.13673408       2.25896688      -0.76600083       0.00000000
Si       0.10494051       0.57818097       2.32555049       0.00000000
Si       2.14037275      -1.10223027       0.18246211       0.00000000
Si      -1.58984896      -1.53533250      -1.24947857       0.00000000
Si       1.90783300      -0.99948924       2.51075772       0.00000000
Si      -0.40240570      -1.02921849      -3.27293787       0.00000000
Si      -2.15908672       2.39342454      -2.07845121       0.00000000
Si       1.15918532       2.49896745      -2.68762969       0.00000000
Si       3.04324600       1.21080312      -2.02654717       0.00000000
Si      -1.72898185      -0.23128542       3.51241257       0.00000000
