10
Lattice="16.28999089631971 0.0 0.0 0.0 16.28999089631971 0.0 0.0 0.0 34.69518985606464" Properties=species:S:1:pos:R:3:initial_magmoms:R:1 pbc="T T T"
Si      -1.35483098      -1.35635427       1.35620103       0.00000000
Si      -1.35390245       1.35887922      -1.35620103       0.00000000
Si       1.35989005       1.35798327       1.35654799       0.00000000
Si       1.36170638      -1.35464382      -1.36067672       0.00000000
Si      -2.71169024       0.00146610       2.71410213       0.00000000
Si      -2.71273280       2.71326240      -0.00117964       0.00000000
Si       2.71559109       2.71156824      -0.00038165       0.00000000
Si       0.00226032      -2.71409319       2.71385927       0.00000000
Si      -2.71247216      -2.71575477      -0.00072860       0.00000000
Si       0.00176112       2.71580364       2.71340823       0.00000000
