10
Lattice="16.28999089631971 0.0 0.0 0.0 16.28999089631971 0.0 0.0 0.0 34.69518985606464" Properties=species:S:1:pos:R:3:initial_magmoms:R:1 pbc="T T T"
Si      -1.34374571      -1.34175843       1.39739119       0.00000000
Si       1.36958740       1.37282346       1.38649689       0.00000000
Si       1.32138529      -1.47474999      -1.46860310       0.00000000
Si      -1.53510434       1.26384336      -1.52036142       0.00000000
Si      -2.70233171      -2.67496461       0.03040688       0.00000000
Si       2.71673945      -2.70728397       0.02707614       0.00000000
Si      -2.70581777       2.72230335       0.00802847       0.00000000
Si       0.01015673      -2.70063765       2.75359222       0.00000000
Si      -2.70257606       0.01262475       2.75241258       0.00000000
Si       2.73239414       2.72719035       0.00400730       0.00000000
