10
Lattice="16.28999089631971 0.0 0.0 0.0 16.28999089631971 0.0 0.0 0.0 34.69518985606464" Properties=species:S:1:pos:R:3:initial_magmoms:R:1 pbc="T T T"
Si      -0.73322756       2.27374844       0.03407070       0.00000000
Si       0.87627982      -0.46372743       2.19162698       0.00000000
Si       1.38232867      -0.16715169      -1.98314347       0.00000000
Si      -1.30977220      -2.05185582      -0.23471309       0.00000000
Si       0.65198281      -3.42306657      -0.22780874       0.00000000
Si       1.39246106       3.35035683       0.20026075       0.00000000
Si       1.54721606      -2.72331333       1.84717294       0.00000000
Si       2.11195777      -2.48948667      -2.07536333       0.00000000
Si      -0.56203921       0.54011124       3.82629176       0.00000000
Si       2.91757973       0.54496566       2.86460995       0.00000000
