10
Lattice="16.28999089631971 0.0 0.0 0.0 16.28999089631971 0.0 0.0 0.0 34.25627252547053" Properties=species:S:1:pos:R:3:initial_magmoms:R:1 pbc="T T T"
Si       0.66882830       1.77642450      -1.38898986       0.00000000
Si       1.66851465      -1.28067093       1.13895319       0.00000000
Si      -0.67829509      -1.69715736      -1.54793905       0.00000000
Si      -1.54598194       1.49620392       1.09311827       0.00000000
Si       2.91992874       1.28422215      -1.02871644       0.00000000
Si       3.50337138      -0.82220517      -0.15617443       0.00000000
Si      -3.62461852       0.31718259       1.03460852       0.00000000
Si       1.23997362      -2.25253233      -2.87889875       0.00000000
Si      -1.47283984      -3.56348637      -0.29217191       0.00000000
Si      -2.58038065      -0.98205894      -2.71169379       0.00000000
