10
Lattice="16.28999089631971 0.0 0.0 0.0 16.28999089631971 0.0 0.0 0.0 34.25627252547053" Properties=species:S:1:pos:R:3:initial_magmoms:R:1 pbc="T T T"
Si       1.29420173      -1.32186508      -1.38265244       0.00000000
Si       1.20134710       1.32864498       1.57983166       0.00000000
Si      -0.76987878      -1.98132175       1.12895035       0.00000000
Si      -1.44601152       1.38575772      -1.34370304       0.00000000
Si      -0.93484761       1.33941267       2.91103115       0.00000000
Si      -0.70887273      -1.13081433       3.33728219       0.00000000
Si       2.50111154       2.72557764       0.06810151       0.00000000
Si       2.71729613      -2.62342484      -0.03569506       0.00000000
Si       2.63170847       0.03160260      -2.73077455       0.00000000
Si      -0.08512863      -2.68519677      -2.72573887       0.00000000
