10
Lattice="16.28999089631971 0.0 0.0 0.0 16.28999089631971 0.0 0.0 0.0 34.25627252547053" Properties=species:S:1:pos:R:3:initial_magmoms:R:1 pbc="T T T"
Si       1.38608352      -1.15096995      -1.46579246       0.00000000
Si       1.35104373       1.18829034       1.52817317       0.00000000
Si      -0.63104202      -1.87351942       1.41598382       0.00000000
Si       0.02557530       1.95579369      -1.68564934       0.00000000
Si      -2.35019088       0.76382181      -1.25874744       0.00000000
Si      -2.17579014      -0.61833582       2.67171670       0.00000000
Si      -1.96752249       1.82659770       2.36615058       0.00000000
Si       1.25374356      -0.09572004       3.50082173       0.00000000
Si       3.53691738       1.19239542       0.60417822       0.00000000
Si       0.17127306       3.08099286       2.19836326       0.00000000
