10
Lattice="16.28999089631971 0.0 0.0 0.0 16.28999089631971 0.0 0.0 0.0 34.25627252547053" Properties=species:S:1:pos:R:3:initial_magmoms:R:1 pbc="T T T"
Si      -1.76884965       0.49752592      -1.42718562       0.00000000
Si       0.11593593       2.27532530       0.65765229       0.00000000
Si      -1.15574292      -1.49852103       1.44582105       0.00000000
Si       2.26512450       0.04861099       2.36025850       0.00000000
Si       2.35815669       2.07595199       1.09311827       0.00000000
Si       0.20259873      -0.88916100       3.27503851       0.00000000
Si       0.17663247      -1.99246641      -2.93953239       0.00000000
Si      -2.14871616      -1.68838098      -2.33583376       0.00000000
Si       3.32260614      -1.25159721       0.60568549       0.00000000
Si      -0.72765801      -3.55772364       0.25596301       0.00000000
