10
Lattice="16.28999089631971 0.0 0.0 0.0 16.28999089631971 0.0 0.0 0.0 34.25627252547053" Properties=species:S:1:pos:R:3:initial_magmoms:R:1 pbc="T T T"
Si       0.27635985       0.72384615       2.21218708       0.00000000
Si       1.26496737      -1.92263377      -0.53522030       0.00000000
Si      -2.27618541      -0.31583052       0.56015888       0.00000000
Si       1.21296969       2.31981003       0.66741533       0.00000000
Si      -2.07332604      -1.23466797      -1.62412504       0.00000000
Si      -0.23157864      -2.73447524      -2.10104114       0.00000000
Si       3.18111120       1.46499228      -0.75226817       0.00000000
Si      -1.78606818       0.70380945      -3.22468176       0.00000000
Si       3.69162351      -0.69330240       0.66957348       0.00000000
Si       1.33056720      -0.82883520       3.62468704       0.00000000
