10
Lattice="16.28999089631971 0.0 0.0 0.0 16.28999089631971 0.0 0.0 0.0 34.25627252547053" Properties=species:S:1:pos:R:3:initial_magmoms:R:1 pbc="T T T"
Si      -1.35762489       1.35439947       1.36021457       0.00000000
Si       1.35856971      -1.35905841       1.35939242       0.00000000
Si      -1.34231229      -1.37516922      -1.37085458       0.00000000
Si       1.35022923       1.36405944      -1.38089852       0.00000000
Si      -2.39651964       0.17751213      -2.78335453       0.00000000
Si       2.59126659      -0.12520494      -2.75612763       0.00000000
Si      -2.71567332       2.70995553       0.00178133       0.00000000
Si       2.71531494       2.71349046       0.00417927       0.00000000
Si       0.00013032       2.71228500       2.71738034       0.00000000
Si      -2.71513575      -0.00228060       2.71731182       0.00000000
