10
Lattice="16.28999089631971 0.0 0.0 0.0 16.28999089631971 0.0 0.0 0.0 34.25627252547053" Properties=species:S:1:pos:R:3:initial_magmoms:R:1 pbc="T T T"
Si       1.35804843      -1.35555606       1.35843325       0.00000000
Si      -1.35715248       1.35977517       1.35860453       0.00000000
Si      -1.33620354      -1.36251189      -1.37755853       0.00000000
Si       1.36080144       1.36513458      -1.36719601       0.00000000
Si       0.31915368      -2.53244340      -2.78513586       0.00000000
Si      -2.60288950      -0.00617391      -2.80304847       0.00000000
Si       2.71567332      -2.70995553      -0.00178133       0.00000000
Si       0.00053757      -2.71223613       2.71553050       0.00000000
Si      -2.71290565       0.00166158       2.71546198       0.00000000
Si      -2.71144606      -2.71767699       0.00191835       0.00000000
