10
Lattice="16.28999089631971 0.0 0.0 0.0 16.28999089631971 0.0 0.0 0.0 34.25627252547053" Properties=species:S:1:pos:R:3:initial_magmoms:R:1 pbc="T T T"
Si      -0.67132719       0.10559178      -2.25553701       0.00000000
Si      -1.80872757       0.48068532       1.48209846       0.00000000
Si       0.92308914      -2.20446054      -0.44618820       0.00000000
Si       0.46038798       2.24684712       0.97568770       0.00000000
Si      -2.21301279      -1.83918987       1.65290033       0.00000000
Si       1.69521885       1.20256038       2.75263006       0.00000000
Si      -1.45267704      -3.39643242      -0.01928629       0.00000000
Si       1.06878690      -1.07926137       3.43782441       0.00000000
Si      -2.49733845       1.87247034      -2.19003898       0.00000000
Si      -3.40743631       1.73273472       0.12842684       0.00000000
