10
Lattice="16.28999089631971 0.0 0.0 0.0 16.28999089631971 0.0 0.0 0.0 34.25627252547053" Properties=species:S:1:pos:R:3:initial_magmoms:R:1 pbc="T T T"
Si      -0.73262646       1.86873993      -1.27594410       0.00000000
Si      -1.46908107      -1.48983453      -1.15282698       0.00000000
Si       2.41118064      -0.16920423       0.00548101       0.00000000
Si      -0.17962983      -0.13849758       2.48601334       0.00000000
Si       1.51394373       1.55448954       2.87749424       0.00000000
Si       2.92136715       2.01733731       0.88141438       0.00000000
Si      -3.05312067       2.01020229      -0.98778017       0.00000000
Si      -3.47438007      -0.30863034      -1.53039983       0.00000000
Si      -0.46069749      -2.27268306      -3.10495602       0.00000000
Si      -1.14228738       1.48095648      -3.62174644       0.00000000
