10
Lattice="16.28999089631971 0.0 0.0 0.0 16.28999089631971 0.0 0.0 0.0 34.25627252547053" Properties=species:S:1:pos:R:3:initial_magmoms:R:1 pbc="T T T"
Si       1.69357356       1.69298712       0.39148090       0.00000000
Si       0.17962983       0.13849758      -2.48601334       0.00000000
Si      -1.96814151       0.85481775       1.41968350       0.00000000
Si       0.51051231      -2.15829468       1.42184164       0.00000000
Si      -0.48187449       1.98132012       2.89150648       0.00000000
Si      -3.18111120      -1.46499228       0.75226817       0.00000000
Si       2.59081047      -0.03070665      -2.48053234       0.00000000
Si       3.31825671       0.33236487       1.53540125       0.00000000
Si       2.08303488      -1.04386320       2.99168215       0.00000000
Si       0.67078962       3.54142971       1.48411958       0.00000000
