10
Lattice="16.28999089631971 0.0 0.0 0.0 16.28999089631971 0.0 0.0 0.0 34.25627252547053" Properties=species:S:1:pos:R:3:initial_magmoms:R:1 pbc="T T T"
Si       1.78364097       0.88741404       1.25043857       0.00000000
Si       0.87868260       0.73316403      -2.09655326       0.00000000
Si      -0.95208534      -1.92754683       1.05437269       0.00000000
Si      -1.89216495       1.62184869       0.13606599       0.00000000
Si      -2.29363200      -0.45380682       2.55795327       0.00000000
Si       0.43800552       2.29900770       2.57545481       0.00000000
Si      -2.13169311      -1.46163654      -2.47285862       0.00000000
Si       2.45860083      -1.26672669      -2.28609332       0.00000000
Si      -2.86993962       1.04982534      -1.92547734       0.00000000
Si      -1.03508289       1.50829110      -3.22060496       0.00000000
