10
Lattice="16.28999089631971 0.0 0.0 0.0 16.28999089631971 0.0 0.0 0.0 34.25627252547053" Properties=species:S:1:pos:R:3:initial_magmoms:R:1 pbc="T T T"
Si      -1.71689988       1.55859788       0.27189219       0.00000000
Si       0.60335717       0.21628070      -2.30246813       0.00000000
Si       1.91422975       1.04691269       0.98000399       0.00000000
Si      -0.96693433      -2.05394487       0.78193411       0.00000000
Si       3.45897788      -0.20827091      -0.27572889       0.00000000
Si      -1.68741498       0.28480622      -3.20275773       0.00000000
Si      -1.25310729       3.18525212      -1.37025167       0.00000000
Si      -3.67153698       0.36296075      -0.07615174       0.00000000
Si       1.41068956       0.96914423       3.27627174       0.00000000
Si      -3.05010606      -1.16031422       1.75135291       0.00000000
