10
Lattice="16.28999089631971 0.0 0.0 0.0 16.28999089631971 0.0 0.0 0.0 34.25627252547053" Properties=species:S:1:pos:R:3:initial_magmoms:R:1 pbc="T T T"
Si       1.35143469       1.33921719      -1.37854169       0.00000000
Si       1.38033315      -1.27767357       1.42721988       0.00000000
Si      -1.35580041      -1.37816658      -1.37374581       0.00000000
Si      -1.33006221       1.31323464       1.56722534       0.00000000
Si      -0.48913983      -2.32238385       2.70261587       0.00000000
Si      -2.31515109      -0.55550529       2.76811390       0.00000000
Si      -2.71379020       2.68157835       0.01377103       0.00000000
Si       2.70671382       2.70446580      -0.00561803       0.00000000
Si       2.69949735      -2.71995759      -0.00613188       0.00000000
Si       0.00030951       2.69552259      -2.73728324       0.00000000
