10
Lattice="16.28999089631971 0.0 0.0 0.0 16.28999089631971 0.0 0.0 0.0 34.25627252547053" Properties=species:S:1:pos:R:3:initial_magmoms:R:1 pbc="T T T"
Si      -1.38033315       1.27767357      -1.42721988       0.00000000
Si       1.61262855       1.02460842       1.42924100       0.00000000
Si       1.31916420      -1.44228402      -1.43335176       0.00000000
Si      -1.86947298      -1.04471028       1.27539600       0.00000000
Si       2.63780712       2.55132351      -0.06008554       0.00000000
Si      -2.71039536       2.59090821       0.14000546       0.00000000
Si      -0.02889846       2.61689076      -2.80576157       0.00000000
Si       2.62555704      -2.85467589      -0.09745915       0.00000000
Si       2.69606016      -0.10161702      -2.80452834       0.00000000
Si      -1.19814579      -1.15030206       3.53093301       0.00000000
