10
Lattice="16.28999089631971 0.0 0.0 0.0 16.28999089631971 0.0 0.0 0.0 34.25627252547053" Properties=species:S:1:pos:R:3:initial_magmoms:R:1 pbc="T T T"
Si      -2.26387017       0.71635275      -0.19690516       0.00000000
Si      -0.03929148      -1.91013282       1.47839878       0.00000000
Si       0.98269425      -0.53515908      -2.14636221       0.00000000
Si       1.39149180       1.84665069       0.77703546       0.00000000
Si       0.20678526       1.21296969      -3.51534639       0.00000000
Si       1.55577645      -3.36469950       0.56050144       0.00000000
Si      -3.35443680      -1.16432775      -1.31091977       0.00000000
Si      -3.01612608       1.17087633       2.04431272       0.00000000
Si       0.89567307       2.25966735       3.01708863       0.00000000
Si      -2.46366702       2.75234211      -1.50337162       0.00000000
