10
Lattice="16.28999089631971 0.0 0.0 0.0 16.28999089631971 0.0 0.0 0.0 34.25627252547053" Properties=species:S:1:pos:R:3:initial_magmoms:R:1 pbc="T T T"
Si       0.95189149       1.80320526      -1.14032344       0.00000000
Si      -2.04918982      -0.13263318      -1.12655241       0.00000000
Si       1.48608946      -1.80700083      -0.23516944       0.00000000
Si      -0.13281074       0.30240756       2.32822886       0.00000000
Si       2.17756738       0.55941489       2.72567036       0.00000000
Si       3.15899101      -1.02954429       1.24593558       0.00000000
Si      -0.94477927       3.19165083      -1.46473052       0.00000000
Si      -3.58519021      -0.13973562       0.68827741       0.00000000
Si       1.98962965      -1.72923237      -2.53143719       0.00000000
Si       2.19789730       0.71570115      -2.83700331       0.00000000
