10
Lattice="16.28999089631971 0.0 0.0 0.0 16.28999089631971 0.0 0.0 0.0 34.25627252547053" Properties=species:S:1:pos:R:3:initial_magmoms:R:1 pbc="T T T"
Si      -1.47417984      -1.10366379       1.49275217       0.00000000
Si       0.82163502      -2.17983006      -0.56769527       0.00000000
Si       0.78286482       1.80686466       1.57071949       0.00000000
Si      -0.96132177       0.80334135      -2.24597951       0.00000000
Si       2.55274074       2.45627855       0.18597741       0.00000000
Si       0.16400772      -2.13317550       2.87646656       0.00000000
Si      -1.20612789      -2.87912718      -1.87933442       0.00000000
Si       2.66028732      -1.71374058      -1.93287700       0.00000000
Si      -2.48430645       0.56786940       2.87571292       0.00000000
Si       2.27390481       2.29262758      -2.14173761       0.00000000
