10
Lattice="16.28999089631971 0.0 0.0 0.0 16.28999089631971 0.0 0.0 0.0 34.25627252547053" Properties=species:S:1:pos:R:3:initial_magmoms:R:1 pbc="T T T"
Si      -1.13694426      -1.55944221       1.31860181       0.00000000
Si       1.56028878       1.23390739       1.27833012       0.00000000
Si       1.41112125      -0.32602857      -1.87664493       0.00000000
Si      -1.80336816       0.85111357      -1.34474749       0.00000000
Si      -0.03349224       1.50052745      -2.72948956       0.00000000
Si      -2.49851133      -0.16557207       2.71948203       0.00000000
Si       0.19013688       2.57104109       2.69677696       0.00000000
Si      -2.42222526      -3.08892660      -0.03900042       0.00000000
Si      -2.86697484       2.69295545      -0.26152929       0.00000000
Si       3.27904668       2.18563598      -0.14584579       0.00000000
