10
Lattice="16.28999089631971 0.0 0.0 0.0 16.28999089631971 0.0 0.0 0.0 34.25627252547053" Properties=species:S:1:pos:R:3:initial_magmoms:R:1 pbc="T T T"
Si       1.32390459       0.45803082       1.90934293       0.00000000
Si       0.09303219       2.02734100      -1.26714023       0.00000000
Si       1.05748164      -1.30020820      -1.75457300       0.00000000
Si      -2.06252577      -0.93777199       0.91478001       0.00000000
Si      -2.26512450      -0.04861099      -2.36025850       0.00000000
Si       3.28484592       0.54997483       0.27932580       0.00000000
Si      -2.14918857       2.22671431      -1.70260621       0.00000000
Si       2.03230782      -1.71355066       2.51245920       0.00000000
Si      -3.42086742      -1.54713202      -0.91443745       0.00000000
Si       3.41966196      -1.43595277      -1.08907602       0.00000000
