10
Lattice="16.28999089631971 0.0 0.0 0.0 16.28999089631971 0.0 0.0 0.0 34.25627252547053" Properties=species:S:1:pos:R:3:initial_magmoms:R:1 pbc="T T T"
Si       0.70840323      -2.17158147       0.60311627       0.00000000
Si      -1.32390459      -0.45803082      -1.90934293       0.00000000
Si      -1.31124726       0.20858856       2.14978784       0.00000000
Si       1.96094133       0.09194402      -1.63001713       0.00000000
Si       1.07789301       2.26409497       0.52686177       0.00000000
Si       1.45323090      -1.58587452       2.79229885       0.00000000
Si      -2.86529697       1.79072386       1.43818189       0.00000000
Si       0.48092967       0.41053569       3.65531760       0.00000000
Si      -1.23087240       1.56931018      -3.17648316       0.00000000
Si      -3.38643036      -1.39580280      -0.99456292       0.00000000
