10
Lattice="16.28999089631971 0.0 0.0 0.0 16.28999089631971 0.0 0.0 0.0 34.25627252547053" Properties=species:S:1:pos:R:3:initial_magmoms:R:1 pbc="T T T"
Si      -1.55404971       1.58213530      -0.71160595       0.00000000
Si       1.79217693       0.20194713       1.50552976       0.00000000
Si      -1.44304965      -1.28733910       1.40128787       0.00000000
Si       1.31124726      -0.20858856      -2.14978784       0.00000000
Si       2.76447816      -1.79446309       0.64251101       0.00000000
Si       2.42323524       2.32406335       0.74325876       0.00000000
Si       2.01965049      -2.38017004      -1.54667157       0.00000000
Si       2.38914027       2.05550641      -1.62292607       0.00000000
Si      -3.11533218       0.09762923      -1.75244911       0.00000000
Si      -2.56243329       2.36498383       1.24052309       0.00000000
