10
Lattice="16.28999089631971 0.0 0.0 0.0 16.28999089631971 0.0 0.0 0.0 34.25627252547053" Properties=species:S:1:pos:R:3:initial_magmoms:R:1 pbc="T T T"
Si      -1.34772057      -1.33833753      -1.37117659       0.00000000
Si      -1.41376023       1.33553565       1.34031167       0.00000000
Si       1.36725228       1.37901366      -1.36823055       0.00000000
Si       1.29342600      -1.33929864       1.50522146       0.00000000
Si       0.38193534       2.16106398       2.62797142       0.00000000
Si       2.13796476       0.51917859       2.68041780       0.00000000
Si      -2.68547166      -2.69671665       0.01565513       0.00000000
Si       2.72583828      -2.68978688       0.02278043       0.00000000
Si       0.00764001      -2.69573925      -2.72601292       0.00000000
Si      -2.70409113       0.01764207      -2.72608143       0.00000000
