10
Lattice="16.28999089631971 0.0 0.0 0.0 16.28999089631971 0.0 0.0 0.0 34.25627252547053" Properties=species:S:1:pos:R:3:initial_magmoms:R:1 pbc="T T T"
Si       0.99880506       0.23488551       2.10114391       0.00000000
Si       1.28212074      -1.52127423      -1.33085693       0.00000000
Si      -1.52650332       1.53248175      -1.09181653       0.00000000
Si       2.31145326       0.35425863      -2.46484295       0.00000000
Si      -0.51357483      -2.34680256      -2.61851668       0.00000000
Si      -0.44629713       1.51194006       3.41788725       0.00000000
Si      -2.53164519       2.99195172       0.48297946       0.00000000
Si       1.55194830      -1.72136430       3.29367393       0.00000000
Si      -0.50132475       3.05919684      -2.58114306       0.00000000
Si      -3.13913187       0.50787333      -2.52105753       0.00000000
