10
Lattice="16.28999089631971 0.0 0.0 0.0 16.28999089631971 0.0 0.0 0.0 34.25627252547053" Properties=species:S:1:pos:R:3:initial_magmoms:R:1 pbc="T T T"
Si       1.60067169       1.06722306      -1.27499828       0.00000000
Si      -1.32581052       1.35697329       1.35751175       0.00000000
Si       1.37974671      -1.37127591       1.34280895       0.00000000
Si      -1.50695532      -0.95915520      -1.55929985       0.00000000
Si      -2.65961943      -2.51926479      -0.15191295       0.00000000
Si       3.38072886      -0.77129892      -1.29392248       0.00000000
Si      -0.00273672       1.94988042      -3.24631944       0.00000000
Si      -2.68851789       2.67618636       0.02424660       0.00000000
Si      -2.68718211       0.00770517       2.70730214       0.00000000
Si       2.71945260       2.69340489       0.05345352       0.00000000
