10
Lattice="16.28999089631971 0.0 0.0 0.0 16.28999089631971 0.0 0.0 0.0 34.25627252547053" Properties=species:S:1:pos:R:3:initial_magmoms:R:1 pbc="T T T"
Si       1.35661491       1.35746199       1.35696023       0.00000000
Si       1.35705474      -1.35721764      -1.35709725       0.00000000
Si      -1.35826020      -1.35786924       1.35692597       0.00000000
Si      -1.35821133       1.35777150      -1.35720002       0.00000000
Si      -0.00029322      -2.71195920       2.71539347       0.00000000
Si      -2.71080261      -0.00237834       2.71686649       0.00000000
Si      -0.00070047      -2.71365336      -2.71463983       0.00000000
Si       2.71384884       0.00138465      -2.71457132       0.00000000
Si       0.00231318       2.71474479       2.71368066       0.00000000
Si       2.71459818      -2.71435383      -0.00034256       0.00000000
