10
Lattice="16.28999089631971 0.0 0.0 0.0 16.28999089631971 0.0 0.0 0.0 34.25627252547053" Properties=species:S:1:pos:R:3:initial_magmoms:R:1 pbc="T T T"
Si      -1.42065090       1.29738447       1.36881290       0.00000000
Si       1.35071793       1.36156707      -1.37881574       0.00000000
Si      -1.36239786      -1.35555606      -1.37562990       0.00000000
Si       1.39212711      -1.40755374       1.48511301       0.00000000
Si       0.13574457       2.49562800       2.67325823       0.00000000
Si      -2.44582947      -0.22933062       2.85813944       0.00000000
Si       2.69692353      -2.70008379      -0.02326002       0.00000000
Si       2.68850160       2.71143792      -0.02117039       0.00000000
Si      -2.73929382      -2.69622306      -0.00445332       0.00000000
Si       2.70501966       0.00428427      -2.73553617       0.00000000
