10
Lattice="16.28999089631971 0.0 0.0 0.0 16.28999089631971 0.0 0.0 0.0 34.25627252547053" Properties=species:S:1:pos:R:3:initial_magmoms:R:1 pbc="T T T"
Si       0.33772428       0.52404930      -2.24262239       0.00000000
Si       1.32859611      -1.10506473       1.61377964       0.00000000
Si      -1.92810069       0.97049697       0.97633857       0.00000000
Si       2.49898374       0.80847337      -0.59417538       0.00000000
Si       2.18945745       2.25245807       1.33407702       0.00000000
Si       0.04085532      -3.03640713       1.89824389       0.00000000
Si      -3.40052121       0.79797609      -0.95623013       0.00000000
Si      -1.87856280      -0.06789672       3.16737098       0.00000000
Si       3.54270033      -1.27550700       0.64326464       0.00000000
Si       0.48361752      -0.20364129       3.83286796       0.00000000
