10
Lattice="16.28999089631971 0.0 0.0 0.0 16.28999089631971 0.0 0.0 0.0 34.25627252547053" Properties=species:S:1:pos:R:3:initial_magmoms:R:1 pbc="T T T"
Si      -0.70840323       2.17158147      -0.60311627       0.00000000
Si       1.56010959      -0.96068646      -1.51405958       0.00000000
Si       0.74482767       0.58570695       2.18918258       0.00000000
Si      -1.60003638      -1.84326237       0.08492135       0.00000000
Si       1.25253810       2.26352549      -2.23313340       0.00000000
Si      -2.01965049       2.38017004       1.54667157       0.00000000
Si       0.15890895      -1.42425099       3.26106194       0.00000000
Si      -2.03230782       1.71355066      -2.51245920       0.00000000
Si       1.36834371      -3.28916277      -0.92906489       0.00000000
Si       1.38735414       0.27759789      -3.60153522       0.00000000
