10
Lattice="16.28999089631971 0.0 0.0 0.0 16.28999089631971 0.0 0.0 0.0 34.25627252547053" Properties=species:S:1:pos:R:3:initial_magmoms:R:1 pbc="T T T"
Si      -0.17319528       1.03975812      -2.12676761       0.00000000
Si       0.06903702      -2.37607569       0.05193254       0.00000000
Si       1.58575005       1.45876950       1.04937298       0.00000000
Si      -2.28066516       0.29338290       1.10291557       0.00000000
Si      -0.25290225       0.99268002       2.41455472       0.00000000
Si       0.50800365      -0.88055595      -3.36321420       0.00000000
Si      -2.90936142       2.03693418      -0.29600862       0.00000000
Si      -0.07884360      -2.91361311      -2.23176315       0.00000000
Si       2.19098871      -1.58719986       2.60364945       0.00000000
Si      -1.85564277      -3.12697953       1.21829076       0.00000000
