10
Lattice="16.28999089631971 0.0 0.0 0.0 16.28999089631971 0.0 0.0 0.0 34.25627252547053" Properties=species:S:1:pos:R:3:initial_magmoms:R:1 pbc="T T T"
Si       1.35289056      -1.35873188       1.35887858       0.00000000
Si      -1.36293543       1.35514392       1.35853602       0.00000000
Si       1.35860915       1.35695211      -1.36907668       0.00000000
Si      -1.38186441      -1.36271903      -1.35460682       0.00000000
Si       2.71396191       2.70934791       0.00253497       0.00000000
Si       2.71117306      -0.00019059       2.71583880       0.00000000
Si       2.71209345      -2.71529443      -0.00095918       0.00000000
Si      -0.00314397       2.71368105       2.71587306       0.00000000
Si      -0.00397476      -2.71570168       2.71645542       0.00000000
Si      -2.71969695      -2.71247626       0.00541249       0.00000000
