10
Lattice="16.28999089631971 0.0 0.0 0.0 16.28999089631971 0.0 0.0 0.0 34.25627252547053" Properties=species:S:1:pos:R:3:initial_magmoms:R:1 pbc="T T T"
Si       1.35714480       1.35759394      -1.35737130       0.00000000
Si      -1.35780408      -1.35792033      -1.35750833       0.00000000
Si      -1.35677781       1.35744733       1.36079693       0.00000000
Si       1.35597960      -1.35873302       1.36042011       0.00000000
Si       2.71383322      -2.71395214      -0.00051384       0.00000000
Si       2.71433821       2.71401337       0.00037682       0.00000000
Si       2.71413784       0.00067929      -2.71505091       0.00000000
Si      -0.00100998      -2.71483180      -2.71443430       0.00000000
Si      -0.00017919       2.71455094      -2.71501665       0.00000000
Si      -2.71557558      -0.00007005      -2.71446855       0.00000000
