10
Lattice="16.28999089631971 0.0 0.0 0.0 16.28999089631971 0.0 0.0 0.0 34.25627252547053" Properties=species:S:1:pos:R:3:initial_magmoms:R:1 pbc="T T T"
Si       2.20940685       0.82732512      -0.13404487       0.00000000
Si      -0.65829519      -0.36938945      -2.25680450       0.00000000
Si       0.91282644      -1.51610771       1.61765061       0.00000000
Si      -2.20970592      -0.51945293       1.57846141       0.00000000
Si      -0.88503570       2.47646444       0.94334976       0.00000000
Si      -1.16581014      -2.69512904       1.55914086       0.00000000
Si       3.12763669      -1.23588713      -0.86445752       0.00000000
Si       1.30733766       0.02646799       3.54727398       0.00000000
Si      -0.14988429       1.61294783      -3.43898912       0.00000000
Si      -0.34178049       1.99221161       3.30926054       0.00000000
