10
Lattice="16.28999089631971 0.0 0.0 0.0 16.28999089631971 0.0 0.0 0.0 34.25627252547053" Properties=species:S:1:pos:R:3:initial_magmoms:R:1 pbc="T T T"
Si       1.35532800       1.35698958       1.38709206       0.00000000
Si      -1.36107837      -1.35604476       1.38784570       0.00000000
Si      -1.48494753       1.26439722      -1.44590326       0.00000000
Si       1.42032510      -1.36329381      -1.45221327       0.00000000
Si      -2.72489346       2.69420310       0.02664112       0.00000000
Si       2.71541268       2.71060713       0.01000969       0.00000000
Si      -2.71476108      -2.71531494       0.02056063       0.00000000
Si       2.71690193      -2.71388142       0.02031056       0.00000000
Si       2.71309809       0.00120546       2.74716961       0.00000000
Si      -0.00464265      -2.71568961       2.74792325       0.00000000
