10
Lattice="16.28999089631971 0.0 0.0 0.0 16.28999089631971 0.0 0.0 0.0 34.25627252547053" Properties=species:S:1:pos:R:3:initial_magmoms:R:1 pbc="T T T"
Si      -1.35705474       1.35721764       1.35709725       0.00000000
Si       1.35754344      -1.35713619       1.35675469       0.00000000
Si      -1.35775521      -1.35643572      -1.35754258       0.00000000
Si       1.35679410       1.35860229      -1.35747407       0.00000000
Si      -2.71485882       0.00123804      -2.71347512       0.00000000
Si      -0.00043983       2.71467963       2.71405748       0.00000000
Si       2.71482624      -0.00089595       2.71440004       0.00000000
Si      -2.71531494      -0.00065160       2.71402322       0.00000000
Si       0.00237834       2.71489140      -2.71484537       0.00000000
Si      -2.71464705      -2.71526607      -0.00010277       0.00000000
