10
Lattice="16.28999089631971 0.0 0.0 0.0 16.28999089631971 0.0 0.0 0.0 34.25627252547053" Properties=species:S:1:pos:R:3:initial_magmoms:R:1 pbc="T T T"
Si       1.35820300      -1.35311256       1.35928965       0.00000000
Si      -1.35728280      -1.35624024      -1.35764535       0.00000000
Si       1.35761207       1.35824391      -1.35733704       0.00000000
Si      -1.35946566       1.35848826       1.36007755       0.00000000
Si       2.69700076      -0.00356751       2.71751736       0.00000000
Si      -2.71482624       0.00089595      -2.71440004       0.00000000
Si       0.00076563      -2.71474479      -2.71501665       0.00000000
Si      -2.71583622      -2.71394658       0.00092492       0.00000000
Si      -0.00003258       2.71612944      -2.71392045       0.00000000
Si       2.71443106       2.71611315      -0.00003426       0.00000000
