10
Lattice="16.28999089631971 0.0 0.0 0.0 16.28999089631971 0.0 0.0 0.0 34.25627252547053" Properties=species:S:1:pos:R:3:initial_magmoms:R:1 pbc="T T T"
Si       0.08649990       0.04549797       2.31343015       0.00000000
Si       1.71448992      -1.46992815      -0.54001618       0.00000000
Si      -2.14931889      -0.94610691      -0.34592003       0.00000000
Si       0.74740149       2.13930054      -0.71530563       0.00000000
Si       1.25069733      -3.09658239       1.10212767       0.00000000
Si       1.05420735      -1.90014705      -2.79877329       0.00000000
Si       1.94741804       1.31261562       2.87694614       0.00000000
Si      -1.82785203       1.29091734       2.99389712       0.00000000
Si       1.75544298       3.07967337       1.28632375       0.00000000
Si      -2.32756407      -2.68962561       1.28467945       0.00000000
