10
Lattice="16.28999089631971 0.0 0.0 0.0 16.28999089631971 0.0 0.0 0.0 34.25627252547053" Properties=species:S:1:pos:R:3:initial_magmoms:R:1 pbc="T T T"
Si      -1.35289056       1.35873188      -1.35887858       0.00000000
Si      -1.35686532      -1.35696980       1.35757684       0.00000000
Si       1.35828251       1.35854129       1.35696023       0.00000000
Si       1.35920289      -1.35656255      -1.35983775       0.00000000
Si       0.01027043      -2.70987059      -2.70273920       0.00000000
Si      -2.71365942      -0.00005833       2.71450281       0.00000000
Si      -2.71406667      -2.71475759       0.00092492       0.00000000
Si       0.00065036      -2.71459469       2.71470835       0.00000000
Si      -2.71582599       2.71387581      -0.00034256       0.00000000
Si       0.00128946       2.71545594       2.71463983       0.00000000
