10
Lattice="16.28999089631971 0.0 0.0 0.0 16.28999089631971 0.0 0.0 0.0 34.25627252547053" Properties=species:S:1:pos:R:3:initial_magmoms:R:1 pbc="T T T"
Si      -1.05199191      -1.53272610       1.37983799       0.00000000
Si       1.62118147       1.07199603       1.40049796       0.00000000
Si       0.97055724      -1.71607005      -1.62032260       0.00000000
Si      -1.86289182       2.00788911       0.16558742       0.00000000
Si       2.55916619       1.33722981      -1.76968003       0.00000000
Si      -0.58218831      -0.94558563      -3.20080512       0.00000000
Si      -2.29039029      -0.13740615       2.75291922       0.00000000
Si      -2.70822879      -1.41183801      -2.17013608       0.00000000
Si      -3.00799737      -2.27266677       0.08806680       0.00000000
Si       0.43736770       2.58370803       2.74368373       0.00000000
