10
Lattice="16.28999089631971 0.0 0.0 0.0 16.28999089631971 0.0 0.0 0.0 34.25627252547053" Properties=species:S:1:pos:R:3:initial_magmoms:R:1 pbc="T T T"
Si      -1.80638181      -0.81585207       1.26985538       0.00000000
Si       0.82644057       1.81428246       1.28994327       0.00000000
Si      -0.87107517       0.92719422      -2.03961211       0.00000000
Si       1.86289182      -2.00788911      -0.16558742       0.00000000
Si       1.20756141       2.10621555      -1.98110236       0.00000000
Si      -0.42749847      -2.14529526       2.58733181       0.00000000
Si       2.30025952       0.57581892       2.57809631       0.00000000
Si      -2.92516272      -2.44203390      -0.05859641       0.00000000
Si       3.48407329      -0.93589308       1.23491054       0.00000000
Si       0.81089991      -3.54061521       1.21425057       0.00000000
