10
Lattice="16.28999089631971 0.0 0.0 0.0 16.28999089631971 0.0 0.0 0.0 34.25627252547053" Properties=species:S:1:pos:R:3:initial_magmoms:R:1 pbc="T T T"
Si       1.04348853       1.65389112      -1.29920412       0.00000000
Si      -0.71873109       1.66778649       1.52772784       0.00000000
Si      -1.72968849      -0.98446986      -1.34545011       0.00000000
Si       1.61705943      -1.90246023       0.14730205       0.00000000
Si      -0.34784037      -2.31557463      -2.73159670       0.00000000
Si       2.39969619       0.38343402      -2.71827100       0.00000000
Si      -2.90059740      -2.53138455      -0.03716808       0.00000000
Si       3.05611803       2.46753331      -0.23051059       0.00000000
Si       1.08362709      -2.95771014       2.36286197       0.00000000
Si      -2.78479179       2.74465064       0.58362444       0.00000000
