10
Lattice="16.28999089631971 0.0 0.0 0.0 16.28999089631971 0.0 0.0 0.0 34.25627252547053" Properties=species:S:1:pos:R:3:initial_magmoms:R:1 pbc="T T T"
Si      -2.07863658      -1.17902133      -0.05850975       0.00000000
Si      -0.91282644       1.51610771      -1.61765061       0.00000000
Si       1.54598194      -1.49620392      -1.09311827       0.00000000
Si       0.39451122       1.54257570       1.92962338       0.00000000
Si      -1.20756141      -2.10621555       1.98110236       0.00000000
Si       1.29658041       2.34343283      -1.75169547       0.00000000
Si      -3.12253236       0.99665478      -0.03918920       0.00000000
Si      -0.38112084      -0.29193309       3.27104563       0.00000000
Si       2.21481025       0.28022058      -2.48210813       0.00000000
Si      -1.25460693       3.50831933       1.69160994       0.00000000
