10
Lattice="16.28999089631971 0.0 0.0 0.0 16.28999089631971 0.0 0.0 0.0 34.25627252547053" Properties=species:S:1:pos:R:3:initial_magmoms:R:1 pbc="T T T"
Si      -0.40428522      -2.31987519       0.17080187       0.00000000
Si       1.80872757      -0.48068532      -1.48209846       0.00000000
Si      -0.25275564       1.73146410       1.64834424       0.00000000
Si      -1.59870874       1.25204940      -1.35367162       0.00000000
Si       2.26911555       1.76616180      -0.50641076       0.00000000
Si      -2.59593272       1.42866558       1.90516366       0.00000000
Si       0.73871892      -2.81434185       2.12351326       0.00000000
Si       0.51140826       3.58283889       0.30834088       0.00000000
Si      -3.60397421       0.48829275      -0.09646572       0.00000000
Si       3.50394642       0.72187506       1.27053160       0.00000000
