10
Lattice="16.28999089631971 0.0 0.0 0.0 16.28999089631971 0.0 0.0 0.0 34.25627252547053" Properties=species:S:1:pos:R:3:initial_magmoms:R:1 pbc="T T T"
Si      -1.53034776      -1.37445246      -1.06903609       0.00000000
Si       2.02523796      -0.96078420      -0.64233973       0.00000000
Si       0.52286013      -0.48254238       2.24073829       0.00000000
Si      -0.19538226       2.09769588      -1.09205632       0.00000000
Si       2.10486348       2.29377861      -1.58582651       0.00000000
Si       3.41068617       0.84260025      -0.20831251       0.00000000
Si       1.85445360      -1.20756141      -2.93350328       0.00000000
Si      -3.42701852       0.01399311      -1.39344318       0.00000000
Si      -0.28434195      -2.46195657      -2.76571596       0.00000000
Si      -0.30467187      -2.61824283       2.79695770       0.00000000
