10
Lattice="16.28999089631971 0.0 0.0 0.0 16.28999089631971 0.0 0.0 0.0 34.25627252547053" Properties=species:S:1:pos:R:3:initial_magmoms:R:1 pbc="T T T"
Si      -1.91006181       0.86951133       1.05163390       0.00000000
Si       1.09757947       1.83615993      -1.01545925       0.00000000
Si      -0.80195085      -1.16144442      -2.01564020       0.00000000
Si       1.12635739      -1.00747134       2.02560878       0.00000000
Si      -2.23789806      -0.95294871       2.56812567       0.00000000
Si       3.27881536       1.10123658      -1.15029202       0.00000000
Si       0.29857941       2.15262576      -3.18412231       0.00000000
Si       0.44204218      -3.08542374      -2.44329575       0.00000000
Si      -0.35336349      -0.63772092       3.90278505       0.00000000
Si      -1.42282791       2.61814509       2.62786865       0.00000000
