10
Lattice="16.28999089631971 0.0 0.0 0.0 16.28999089631971 0.0 0.0 0.0 34.25627252547053" Properties=species:S:1:pos:R:3:initial_magmoms:R:1 pbc="T T T"
Si      -1.94384823      -1.10653083      -0.88929333       0.00000000
Si       0.93918366      -0.38858166      -2.22145200       0.00000000
Si      -0.61343253       2.29043916       0.59671034       0.00000000
Si      -0.11433951      -0.05304024       2.64461997       0.00000000
Si      -3.42356912      -0.73678041       0.98788294       0.00000000
Si       1.84453299      -1.68246378       2.67202501       0.00000000
Si      -2.94028798       1.74860118       1.29344906       0.00000000
Si       0.03049488       3.37225806      -1.45082246       0.00000000
Si      -1.15450488      -3.29846436      -1.22007208       0.00000000
Si       0.51792426      -2.70741429      -2.76407166       0.00000000
