10
Lattice="16.28999089631971 0.0 0.0 0.0 16.28999089631971 0.0 0.0 0.0 34.25627252547053" Properties=species:S:1:pos:R:3:initial_magmoms:R:1 pbc="T T T"
Si       1.38339567      -1.20537855       1.51079495       0.00000000
Si       0.95208534       1.92754683      -1.05437269       0.00000000
Si      -0.68051475      -1.87756911      -1.47932168       0.00000000
Si      -1.34154666       1.47374001       1.50358058       0.00000000
Si      -2.58029527      -2.57668704       0.07494249       0.00000000
Si       2.76462477      -2.38049028       0.01990633       0.00000000
Si      -1.17960777       0.46591029      -3.52723131       0.00000000
Si      -0.94007961       3.54939552      -0.91830670       0.00000000
Si       0.02259423      -2.57051313       2.87799096       0.00000000
Si       2.73572631       2.81496087       0.19606589       0.00000000
