10
Lattice="16.28999089631971 0.0 0.0 0.0 16.28999089631971 0.0 0.0 0.0 34.25627252547053" Properties=species:S:1:pos:R:3:initial_magmoms:R:1 pbc="T T T"
Si       1.34705920       1.32615261      -1.37715088       0.00000000
Si       1.35404761      -1.35832536       1.35586402       0.00000000
Si      -1.36113979       1.35560493       1.35531592       0.00000000
Si      -1.35708799      -1.36368477      -1.38273466       0.00000000
Si      -0.16723314       2.56455099      -2.69040351       0.00000000
Si       2.71191685      -0.00118917       2.71299553       0.00000000
Si      -0.00318307       2.71410948       2.71299553       0.00000000
Si      -0.00170556      -2.71643895       2.71272148       0.00000000
Si       2.71120009      -2.71810053      -0.00274050       0.00000000
Si       2.71442551       2.71502172      -0.00630316       0.00000000
