10
Lattice="16.28999089631971 0.0 0.0 0.0 16.28999089631971 0.0 0.0 0.0 34.25627252547053" Properties=species:S:1:pos:R:3:initial_magmoms:R:1 pbc="T T T"
Si      -1.35869026      -1.35647064       1.35644638       0.00000000
Si       1.35692442      -1.35731772      -1.35781663       0.00000000
Si       1.35575154       1.35994780       1.35833048       0.00000000
Si      -1.35838563       1.35816079      -1.35809068       0.00000000
Si       0.00029322       2.71554785       2.71234466       0.00000000
Si       2.71397916      -2.71448649      -0.00044533       0.00000000
Si       2.71445157       2.71489625      -0.00020554       0.00000000
Si      -0.00138465       2.71588994      -2.71395471       0.00000000
Si      -0.00110772      -2.71528470      -2.71491388       0.00000000
Si      -0.00037467      -2.71365570       2.71655819       0.00000000
