10
Lattice="16.28999089631971 0.0 0.0 0.0 16.28999089631971 0.0 0.0 0.0 34.25627252547053" Properties=species:S:1:pos:R:3:initial_magmoms:R:1 pbc="T T T"
Si      -1.34705920      -1.32615261       1.37715088       0.00000000
Si      -1.51429234       1.23839838      -1.31325262       0.00000000
Si       1.36736631       1.38886911       1.37084773       0.00000000
Si       1.34154666      -1.47374001      -1.50358058       0.00000000
Si       0.40146705       2.07565551      -2.42188728       0.00000000
Si       2.29363200       0.45380682      -2.55795327       0.00000000
Si      -2.70414719      -2.68983738      -0.00558378       0.00000000
Si       2.72494233      -2.67911856       0.00721438       0.00000000
Si       0.00698841      -2.68447797       2.73301491       0.00000000
Si      -2.70819899       0.02945232       2.73246681       0.00000000
