10
Lattice="16.28999089631971 0.0 0.0 0.0 16.28999089631971 0.0 0.0 0.0 34.25627252547053" Properties=species:S:1:pos:R:3:initial_magmoms:R:1 pbc="T T T"
Si      -1.18381377       1.51171200       1.34318577       0.00000000
Si       1.51429234      -1.23839838       1.31325262       0.00000000
Si       1.91575939       0.83725713      -1.10863465       0.00000000
Si      -1.62118147      -1.07199603      -1.40049796       0.00000000
Si       0.93798472       0.26523378      -3.17017798       0.00000000
Si      -2.55241561       0.14983542       2.69119140       0.00000000
Si       0.16723314      -2.56455099       2.69040351       0.00000000
Si      -2.67317338      -2.60472213      -0.02065997       0.00000000
Si      -3.48407329       0.93589308      -1.23491054       0.00000000
Si      -2.65763272       2.75017554       0.05503273       0.00000000
