10
Lattice="16.28999089631971 0.0 0.0 0.0 16.28999089631971 0.0 0.0 0.0 34.25627252547053" Properties=species:S:1:pos:R:3:initial_magmoms:R:1 pbc="T T T"
Si      -1.29062086      -1.33257087       1.48699711       0.00000000
Si      -1.57475430       1.23642729      -1.29416844       0.00000000
Si       1.27250964      -1.59767433      -1.26374886       0.00000000
Si       1.09056663       1.88068050       1.11401461       0.00000000
Si      -3.02035238       1.77187959       0.47325067       0.00000000
Si      -3.10758533       0.05388732       1.93284274       0.00000000
Si      -0.28551483       3.05191521      -2.04338780       0.00000000
Si       0.19207539      -1.61152083      -3.41257752       0.00000000
Si       3.35443680       1.16432775       1.31091977       0.00000000
Si       1.46789190      -3.69537021      -0.17169253       0.00000000
