10
Lattice="16.28999089631971 0.0 0.0 0.0 16.28999089631971 0.0 0.0 0.0 34.25627252547053" Properties=species:S:1:pos:R:3:initial_magmoms:R:1 pbc="T T T"
Si       0.45268281       1.88810874       1.29978647       0.00000000
Si      -1.81071495       0.45778158      -1.42293784       0.00000000
Si      -0.64392741      -1.08181890       2.04753281       0.00000000
Si       2.14964469      -0.22455765      -1.06204781       0.00000000
Si      -1.38217392       1.42964298       2.59491409       0.00000000
Si       0.17811486      -2.37008097      -2.61437167       0.00000000
Si       2.36644830       1.11298167       2.42383817       0.00000000
Si      -2.00312103      -1.63515762      -2.47953890       0.00000000
Si      -0.03049488      -3.37225806       1.45082246       0.00000000
Si       3.36730590       1.69432290      -0.40826648       0.00000000
