10
Lattice="16.28999089631971 0.0 0.0 0.0 16.28999089631971 0.0 0.0 0.0 34.25627252547053" Properties=species:S:1:pos:R:3:initial_magmoms:R:1 pbc="T T T"
Si       2.18123589      -0.73492335      -0.13483276       0.00000000
Si      -0.79900006       0.31646583      -2.16866306       0.00000000
Si       0.19240608       2.09293920       1.05660106       0.00000000
Si      -1.09757947      -1.83615993       1.01545925       0.00000000
Si      -2.61596453       1.70292402      -1.72281742       0.00000000
Si       2.00312103       1.63515762       2.47953890       0.00000000
Si      -1.89953033      -2.99760435      -1.00018095       0.00000000
Si      -3.00764129      -0.96664860       2.06709315       0.00000000
Si      -1.96196990      -1.55323521      -2.95285809       0.00000000
Si       2.48237283      -2.52887589      -1.58661440       0.00000000
