10
Lattice="16.28999089631971 0.0 0.0 0.0 16.28999089631971 0.0 0.0 0.0 34.25627252547053" Properties=species:S:1:pos:R:3:initial_magmoms:R:1 pbc="T T T"
Si       1.11358929       1.90910655       0.94204802       0.00000000
Si       1.37583059      -1.25035524      -1.54149887       0.00000000
Si      -1.32554078       1.45477845      -1.56479315       0.00000000
Si      -2.10817754      -0.83111580       1.30077991       0.00000000
Si      -0.66911894       3.53887774       0.92296727       0.00000000
Si       2.75955858      -2.61869895       0.01195545       0.00000000
Si      -2.68174844       2.72523555      -0.14572626       0.00000000
Si      -2.78074277      -2.62778877      -0.18083896       0.00000000
Si       0.01688853      -2.59445943      -2.93305795       0.00000000
Si      -2.69403110       0.12000843      -2.93552440       0.00000000
