10
Lattice="16.28999089631971 0.0 0.0 0.0 16.28999089631971 0.0 0.0 0.0 34.25627252547053" Properties=species:S:1:pos:R:3:initial_magmoms:R:1 pbc="T T T"
Si       1.70446668       0.98766809      -1.18372616       0.00000000
Si      -1.11358929      -1.90910655      -0.94204802       0.00000000
Si      -1.78270822       1.62977119      -0.01908075       0.00000000
Si       1.78322883       0.66394782       1.88169810       0.00000000
Si       0.28137228       2.28922785      -2.53068355       0.00000000
Si      -2.43913006      -0.45432810      -2.50684117       0.00000000
Si      -1.72170217       2.48027860       2.18925109       0.00000000
Si       2.97981078      -0.44505909      -2.50451174       0.00000000
Si      -1.01282945       3.61109294      -1.14803110       0.00000000
Si       0.56906997       2.41175309       3.08954069       0.00000000
