10
Lattice="10.86 0.0 0.0 0.0 10.86 0.0 0.0 0.0 10.86" Properties=species:S:1:pos:R:3:initial_magmoms:R:1 pbc="T T T"
Si      -1.33361886       1.35626196      -1.34142720       0.00000000
Si      -1.33361886      -1.35873804       1.37357280       0.00000000
Si       1.38138114       1.35626196       1.37357280       0.00000000
Si       2.74913298      -0.21782988      -2.57428698       0.00000000
Si       2.67752214       2.65713792      -0.05339862       0.00000000
Si      -0.03658734       2.61060282      -2.76494514       0.00000000
Si      -2.69111886      -0.00123804      -2.69892720       0.00000000
Si      -2.69111886       2.71376196       0.01607280       0.00000000
Si      -2.69111886      -2.71623804       0.01607280       0.00000000
Si      -2.69111886      -0.00123804       2.73107280       0.00000000
