10
Lattice="16.28999089631971 0.0 0.0 0.0 16.28999089631971 0.0 0.0 0.0 34.31420841018396" Properties=species:S:1:pos:R:3:initial_magmoms:R:1 pbc="T T T"
Si      -1.70092687      -0.71959446       1.54386028       0.00000000
Si       1.97297964      -1.63611873       0.03438286       0.00000000
Si       0.81274068       1.87867683       1.54662257       0.00000000
Si      -1.46391714       0.42753105      -2.23467976       0.00000000
Si      -0.37217763      -1.94554728       3.01917304       0.00000000
Si       1.03272084      -3.21725871       1.62352419       0.00000000
Si      -2.65827388      -2.70624141       0.44313946       0.00000000
Si       2.33655615       0.77118489       2.99206137       0.00000000
Si       3.63490173      -0.54551952       1.45234766       0.00000000
Si       2.09132649       3.48670548       0.27780799       0.00000000
