10
Lattice="16.28999089631971 0.0 0.0 0.0 16.28999089631971 0.0 0.0 0.0 34.31420841018396" Properties=species:S:1:pos:R:3:initial_magmoms:R:1 pbc="T T T"
Si       1.35646830      -1.35451390      -1.36042187       0.00000000
Si      -1.35845568      -1.35663160       1.35671593       0.00000000
Si       1.35703845       1.35805196       1.35675024       0.00000000
Si      -1.35663120       1.35967445      -1.36532880       0.00000000
Si       2.71409319       0.00121754       2.71408383       0.00000000
Si      -0.00091224      -2.71394698       2.71435834       0.00000000
Si      -2.71463076      -2.71414246      -0.00030883       0.00000000
Si       2.71453302      -2.71446826      -0.00044608       0.00000000
Si       2.71332756       2.71615252      -0.00013726       0.00000000
Si      -2.71577106       0.00033471       2.71435834       0.00000000
