10
Lattice="16.28999089631971 0.0 0.0 0.0 16.28999089631971 0.0 0.0 0.0 34.31420841018396" Properties=species:S:1:pos:R:3:initial_magmoms:R:1 pbc="T T T"
Si      -0.76077558       0.49589855       2.14992362       0.00000000
Si      -1.86411357      -0.85751814      -1.14043335       0.00000000
Si       1.00897002       1.86953651      -1.05636350       0.00000000
Si       1.58127030      -1.90776330      -0.11979097       0.00000000
Si       2.22523029       0.46212775      -2.53039977       0.00000000
Si      -0.53092368      -2.26588266      -2.54433135       0.00000000
Si       3.52992897      -0.88119745      -1.04929477       0.00000000
Si      -3.11262804      -2.22849711       0.33291664       0.00000000
Si      -3.10748529       1.19690612       2.03689255       0.00000000
Si       2.13794847       3.27819797       0.54391482       0.00000000
