10
Lattice="16.28999089631971 0.0 0.0 0.0 16.28999089631971 0.0 0.0 0.0 34.31420841018396" Properties=species:S:1:pos:R:3:initial_magmoms:R:1 pbc="T T T"
Si      -0.33234858       0.47421005      -2.22332175       0.00000000
Si       1.27785276       1.91450668       0.59583225       0.00000000
Si       0.87451236      -1.88423076       1.26478811       0.00000000
Si      -2.31790410      -0.40468595       0.61871984       0.00000000
Si      -1.18627038      -1.22028906       2.64514655       0.00000000
Si      -2.25166896      -2.01947034      -1.26564597       0.00000000
Si       2.92972392      -0.58938197       1.37552013       0.00000000
Si      -1.06267815       2.70416444      -1.81625207       0.00000000
Si       1.97752455       1.26745160       2.66772896       0.00000000
Si       3.33422091      -1.17301651      -0.99075469       0.00000000
