10
Lattice="16.28999089631971 0.0 0.0 0.0 16.28999089631971 0.0 0.0 0.0 34.31420841018396" Properties=species:S:1:pos:R:3:initial_magmoms:R:1 pbc="T T T"
Si       0.69967179      -0.64705509       2.07189671       0.00000000
Si      -1.43527932       1.79113437      -0.35367674       0.00000000
Si       1.80926514       0.43271127      -1.41858448       0.00000000
Si      -1.27785276      -1.91450668      -0.59583225       0.00000000
Si       1.65187116      -2.50388866       0.77968788       0.00000000
Si      -2.34053091       0.78965775      -2.41208431       0.00000000
Si      -1.61020134      -1.44029664      -2.81915400       0.00000000
Si       1.92971340      -1.24553340      -3.02435308       0.00000000
Si       1.47097071       2.53376289      -2.49783557       0.00000000
Si      -0.23425020       3.62691963      -1.29697486       0.00000000
