10
Lattice="16.28999089631971 0.0 0.0 0.0 16.28999089631971 0.0 0.0 0.0 34.31420841018396" Properties=species:S:1:pos:R:3:initial_magmoms:R:1 pbc="T T T"
Si      -1.30657203       1.35423657       1.48735019       0.00000000
Si      -1.48849875      -0.87904098      -1.66610814       0.00000000
Si       1.38432420      -1.36537893       1.47800986       0.00000000
Si       1.83368385       1.10996802      -1.22932234       0.00000000
Si      -2.72132595      -2.55425571      -0.12977641       0.00000000
Si       3.51903096      -0.79814484      -1.17682908       0.00000000
Si      -2.61454500       2.79345807       0.11237910       0.00000000
Si       2.77223220      -2.69234604       0.05081937       0.00000000
Si      -2.67569766      -0.00244350       2.85645356       0.00000000
Si       0.04540023       2.71057455       2.85566433       0.00000000
