10
Lattice="16.28999089631971 0.0 0.0 0.0 16.28999089631971 0.0 0.0 0.0 34.31420841018396" Properties=species:S:1:pos:R:3:initial_magmoms:R:1 pbc="T T T"
Si       2.09929230       0.99802966       0.24246433       0.00000000
Si       0.30514428      -0.93356428      -2.13485967       0.00000000
Si      -1.58087934       1.75380421      -0.07700113       0.00000000
Si       0.04144176      -1.40898793       1.93230278       0.00000000
Si       1.45319832       2.35127254       2.03061305       0.00000000
Si       0.97145415      -3.30284704       0.81990415       0.00000000
Si      -0.79495200       3.12029086       1.69196593       0.00000000
Si       2.37780243       2.51314627      -1.58984679       0.00000000
Si       3.63910455      -0.72726966       0.90603287       0.00000000
Si      -1.25944506      -2.73222463      -2.37406415       0.00000000
