10
Lattice="16.28999089631971 0.0 0.0 0.0 16.28999089631971 0.0 0.0 0.0 34.31420841018396" Properties=species:S:1:pos:R:3:initial_magmoms:R:1 pbc="T T T"
Si       0.00118917       0.97736742      -2.09906993       0.00000000
Si      -2.29183100      -0.47214936      -0.12061451       0.00000000
Si       1.58087934      -1.75380421       0.07700113       0.00000000
Si       0.78592734       1.36648665       1.76896706       0.00000000
Si      -2.88278333      -0.01321119       2.06969695       0.00000000
Si      -0.71300190       3.17827674      -1.77407988       0.00000000
Si       3.03407766       0.59746833       2.10761417       0.00000000
Si       3.68017164      -0.75577455       0.31946546       0.00000000
Si       2.13802992       1.07202861      -2.92432710       0.00000000
Si      -2.61956951      -2.77715897      -0.03524071       0.00000000
