10
Lattice="16.28999089631971 0.0 0.0 0.0 16.28999089631971 0.0 0.0 0.0 34.31420841018396" Properties=species:S:1:pos:R:3:initial_magmoms:R:1 pbc="T T T"
Si       0.50362164       1.79711280      -1.34576969       0.00000000
Si       1.85499117      -0.58870431       1.28318054       0.00000000
Si       0.33301647      -1.79390367      -1.46583517       0.00000000
Si      -2.27905245       0.16283484       0.81407074       0.00000000
Si       0.65396205      -2.42448957       2.22647866       0.00000000
Si      -1.43055522       0.43994403       3.05070640       0.00000000
Si      -0.25128954      -3.42596619       0.16807109       0.00000000
Si      -1.50433263       1.82293245      -2.54522352       0.00000000
Si       0.32868333       2.48601690       2.49581103       0.00000000
Si       2.59778259      -1.31097033      -2.04406422       0.00000000
