10
Lattice="16.28999089631971 0.0 0.0 0.0 16.28999089631971 0.0 0.0 0.0 34.31420841018396" Properties=species:S:1:pos:R:3:initial_magmoms:R:1 pbc="T T T"
Si       1.48849875       0.87904098       1.66610814       0.00000000
Si       0.96140322      -0.98759754      -1.97022001       0.00000000
Si      -1.12311405       1.87683606      -1.14599226       0.00000000
Si      -1.23282720      -1.67521473       1.53633174       0.00000000
Si       2.16243234       0.84818772      -2.91351812       0.00000000
Si      -2.80956888       2.56130928       0.44176137       0.00000000
Si       0.18192672       2.23327755       3.15345834       0.00000000
Si       3.32218260       1.98900900       0.43678580       0.00000000
Si       2.39668254      -2.77873191      -1.61654326       0.00000000
Si      -2.53825893      -0.47456028       3.14596411       0.00000000
