10
Lattice="16.28999089631971 0.0 0.0 0.0 16.28999089631971 0.0 0.0 0.0 34.31420841018396" Properties=species:S:1:pos:R:3:initial_magmoms:R:1 pbc="T T T"
Si       1.43527932      -1.79113437       0.35367674       0.00000000
Si       1.20102912       1.83578526      -0.94329812       0.00000000
Si      -0.96140322       0.98759754       1.97022001       0.00000000
Si      -0.90525159      -1.00147662      -2.05840757       0.00000000
Si      -0.65396205       2.42448957      -2.22647866       0.00000000
Si      -2.08451727       2.86443360       0.82422775       0.00000000
Si       3.24454446      -1.35842310      -1.06490774       0.00000000
Si       2.90625003       0.74262852      -2.14415882       0.00000000
Si       0.15742656      -3.70564105      -0.24215550       0.00000000
Si      -0.32094558       0.63058590      -3.69231383       0.00000000
