10
Lattice="16.28999089631971 0.0 0.0 0.0 16.28999089631971 0.0 0.0 0.0 34.31420841018396" Properties=species:S:1:pos:R:3:initial_magmoms:R:1 pbc="T T T"
Si      -1.52282178       1.81749159      -0.22513565       0.00000000
Si       0.60481512      -0.84947463       2.16780133       0.00000000
Si      -1.59795126      -1.62064323      -0.81022754       0.00000000
Si       2.01394899       0.14685435      -1.33372540       0.00000000
Si       0.88715340      -1.29785688      -3.05348586       0.00000000
Si      -1.15657371       3.06209646       1.62505319       0.00000000
Si      -0.18551052      -3.18384792      -1.90166018       0.00000000
Si      -3.19943745      -0.15218118      -1.88220401       0.00000000
Si       1.47711204       0.94094298       3.37679451       0.00000000
Si      -1.23072579       3.18205602      -2.17257101       0.00000000
