10
Lattice="16.28999089631971 0.0 0.0 0.0 16.28999089631971 0.0 0.0 0.0 34.31420841018396" Properties=species:S:1:pos:R:3:initial_magmoms:R:1 pbc="T T T"
Si       2.34978363       0.04320108      -0.12816364       0.00000000
Si      -0.81282213       2.04903765      -0.85837040       0.00000000
Si      -0.13608666      -1.34439741      -1.97279357       0.00000000
Si      -0.42490836      -0.05090625       2.44307006       0.00000000
Si      -0.03650589      -3.42179595      -0.87573340       0.00000000
Si       2.66383854       0.90661995      -2.28440107       0.00000000
Si      -1.22404689       3.20681682       1.17491915       0.00000000
Si      -1.04972760      -3.25187496       1.23850342       0.00000000
Si      -2.20656195       1.52953326       2.48129611       0.00000000
Si       1.05577119       2.67641442      -2.26443019       0.00000000
