10
Lattice="16.28999089631971 0.0 0.0 0.0 16.28999089631971 0.0 0.0 0.0 34.31420841018396" Properties=species:S:1:pos:R:3:initial_magmoms:R:1 pbc="T T T"
Si      -1.35536058       1.35677781       1.35740221       0.00000000
Si       1.35762489       1.35656604      -1.35671593       0.00000000
Si      -1.35687555      -1.35913986      -1.35678456       0.00000000
Si       1.35839052      -1.35821133       1.36138267       0.00000000
Si       0.00008145       2.71388142      -2.71435834       0.00000000
Si      -0.02546127       2.71656927       2.71185341       0.00000000
Si      -2.71717037       2.71156824      -0.00048040       0.00000000
Si      -2.71415998      -0.00141723      -2.71466717       0.00000000
Si       2.71562445       2.71326240      -0.00003431       0.00000000
Si       2.71533123      -0.00123804      -2.71422109       0.00000000
