10
Lattice="16.28999089631971 0.0 0.0 0.0 16.28999089631971 0.0 0.0 0.0 34.31420841018396" Properties=species:S:1:pos:R:3:initial_magmoms:R:1 pbc="T T T"
Si       1.27286802      -1.49279931       1.24505743       0.00000000
Si      -1.32989931      -1.35979146      -1.35445119       0.00000000
Si       1.38173409       1.35392706      -1.35060800       0.00000000
Si      -1.33318989       1.40836451       1.40389799       0.00000000
Si       2.11219398       0.35811936       2.42454038       0.00000000
Si       0.53092368       2.26588266       2.54433135       0.00000000
Si      -2.69170910      -0.00500103      -2.71233381       0.00000000
Si      -2.69753441       2.71560069       0.00754913       0.00000000
Si       0.02406033       2.71029177      -2.71092692       0.00000000
Si      -2.69362481      -2.73329910       0.03246126       0.00000000
