10
Lattice="16.28999089631971 0.0 0.0 0.0 16.28999089631971 0.0 0.0 0.0 34.31420841018396" Properties=species:S:1:pos:R:3:initial_magmoms:R:1 pbc="T T T"
Si       2.01771198      -0.84108528      -0.78281047       0.00000000
Si       0.36157284       2.30865857       0.30258286       0.00000000
Si      -1.41455844      -0.37146087      -1.85300260       0.00000000
Si      -0.82852569      -0.97122609       1.99142620       0.00000000
Si      -3.48360021      -0.27614808      -0.73267739       0.00000000
Si      -3.00928428      -1.49193594       1.24447409       0.00000000
Si       2.59936272       2.23137881       1.05993218       0.00000000
Si       2.18310435       0.31025740      -2.87927252       0.00000000
Si       3.68450478       0.19003914       0.48832577       0.00000000
Si      -0.48454605      -2.26531998      -2.96540123       0.00000000
