10
Lattice="16.28999089631971 0.0 0.0 0.0 16.28999089631971 0.0 0.0 0.0 34.31420841018396" Properties=species:S:1:pos:R:3:initial_magmoms:R:1 pbc="T T T"
Si       2.29672710       0.17396091       0.20650302       0.00000000
Si      -0.93322152      -1.70267967      -1.32861258       0.00000000
Si      -0.91510704      -0.90349227       2.02721594       0.00000000
Si      -0.62151237       2.25113139      -0.55976799       0.00000000
Si      -3.00185604      -0.60180147      -1.59784201       0.00000000
Si      -2.80227096       1.73042154      -1.30672010       0.00000000
Si      -2.30073444       0.95250888       2.54275289       0.00000000
Si       1.04798457      -1.92140550       2.87415970       0.00000000
Si       3.21189930      -0.85076154      -1.61956291       0.00000000
Si      -0.98285715      -3.61375731       0.00473536       0.00000000
