10
Lattice="16.28999089631971 0.0 0.0 0.0 16.28999089631971 0.0 0.0 0.0 34.31420841018396" Properties=species:S:1:pos:R:3:initial_magmoms:R:1 pbc="T T T"
Si       1.46051253      -1.79940155       0.44467808       0.00000000
Si       0.00848709       1.33380891       1.95570509       0.00000000
Si      -1.96536732      -1.33610254       0.07957469       0.00000000
Si       1.03687479       1.09757133      -1.90052781       0.00000000
Si       3.09558870      -0.47403900       1.47709024       0.00000000
Si       2.36525913       1.75591539       1.88415992       0.00000000
Si      -0.81981054       1.37668419      -3.28586181       0.00000000
Si      -2.60641466      -1.41555213       2.39520171       0.00000000
Si      -0.91815327      -0.09845676       3.82387458       0.00000000
Si      -3.44866535      -0.83462467      -1.72768704       0.00000000
