10
Lattice="16.28999089631971 0.0 0.0 0.0 16.28999089631971 0.0 0.0 0.0 34.31420841018396" Properties=species:S:1:pos:R:3:initial_magmoms:R:1 pbc="T T T"
Si      -1.35236322      -1.34987085      -1.38595165       0.00000000
Si       1.36171368       1.36570473      -1.37991235       0.00000000
Si       1.38414501      -1.39777974       1.39799595       0.00000000
Si      -1.23178464       1.36705680       1.60230286       0.00000000
Si       0.73448352       2.11424652       2.88435103       0.00000000
Si       2.46785355       0.15053589       2.73354000       0.00000000
Si      -2.69333973      -2.69177752      -0.01636789       0.00000000
Si      -2.69933445       2.70881523       0.00336279       0.00000000
Si       0.00475668      -2.70699727      -2.74187836       0.00000000
Si      -2.70969489       0.00527796      -2.74229013       0.00000000
