10
Lattice="16.28999089631971 0.0 0.0 0.0 16.28999089631971 0.0 0.0 0.0 34.31420841018396" Properties=species:S:1:pos:R:3:initial_magmoms:R:1 pbc="T T T"
Si       1.08370854       1.54831563       1.33554405       0.00000000
Si      -1.21769379      -1.32239776       1.51572806       0.00000000
Si       1.34211681      -1.33105427      -1.40540782       0.00000000
Si      -1.38414501       1.39777974      -1.39799595       0.00000000
Si       2.30073444      -0.17285319       2.90109637       0.00000000
Si       2.65408083       2.68009596      -0.04052510       0.00000000
Si      -2.61592965       2.76483654       0.20430691       0.00000000
Si      -2.77278606      -2.63732298       0.06674117       0.00000000
Si       2.56917735      -2.85948863       0.03723094       0.00000000
Si      -0.01824480      -2.66715260      -2.77880046       0.00000000
