10
Lattice="16.28999089631971 0.0 0.0 0.0 16.28999089631971 0.0 0.0 0.0 34.31420841018396" Properties=species:S:1:pos:R:3:initial_magmoms:R:1 pbc="T T T"
Si      -2.09692278       0.95343741      -0.12099197       0.00000000
Si       0.64104734       0.07944959      -2.31562702       0.00000000
Si      -0.31181764      -1.77472124       1.63352880       0.00000000
Si       1.68826139       1.31709537       1.42867287       0.00000000
Si       1.00490892      -2.21979662      -2.40154985       0.00000000
Si      -1.85434839       2.96535015      -1.26568028       0.00000000
Si       2.60641466       1.41555213      -2.39520171       0.00000000
Si       2.61490175       2.74936104      -0.43949663       0.00000000
Si      -3.60459486      -0.32873220      -1.39682926       0.00000000
Si      -0.67993713      -0.50697086       3.80579098       0.00000000
