10
Lattice="16.28999089631971 0.0 0.0 0.0 16.28999089631971 0.0 0.0 0.0 34.31420841018396" Properties=species:S:1:pos:R:3:initial_magmoms:R:1 pbc="T T T"
Si       2.02818645      -1.25447824       0.49525725       0.00000000
Si       0.92664036       1.43226567      -1.86816949       0.00000000
Si      -1.68826139      -1.31709537      -1.42867287       0.00000000
Si       0.18044433       1.12747977       2.31418582       0.00000000
Si      -2.00007903      -3.09181661       0.20485594       0.00000000
Si       2.09442159      -2.86926263      -1.38910856       0.00000000
Si      -2.36819852      -1.82406623       2.37711812       0.00000000
Si      -0.65623451      -0.70313830       3.71865484       0.00000000
Si       0.91815327       0.09845676      -3.82387458       0.00000000
Si      -0.25723539       3.48936687      -1.98205841       0.00000000
