10
Lattice="16.28999089631971 0.0 0.0 0.0 16.28999089631971 0.0 0.0 0.0 34.31420841018396" Properties=species:S:1:pos:R:3:initial_magmoms:R:1 pbc="T T T"
Si       1.35786924       1.35573525      -1.35764241       0.00000000
Si      -1.35785295       1.35733167       1.35719633       0.00000000
Si       1.35762489      -1.35760860       1.35716202       0.00000000
Si      -1.35814617      -1.35788553      -1.35726496       0.00000000
Si       2.71423980       0.00091224       2.71302009       0.00000000
Si       2.71474479      -2.71472850      -0.00065197       0.00000000
Si       2.71456560       2.71495656      -0.00037746       0.00000000
Si      -2.71507059       2.71474479      -0.00041177       0.00000000
Si       0.00032580       2.71440270       2.71542209       0.00000000
Si      -0.00011403      -2.71611315       2.71422109       0.00000000
