10
Lattice="16.28999089631971 0.0 0.0 0.0 16.28999089631971 0.0 0.0 0.0 34.31420841018396" Properties=species:S:1:pos:R:3:initial_magmoms:R:1 pbc="T T T"
Si      -1.14515442      -1.53127629      -1.36306406       0.00000000
Si       1.99316295      -0.09663228      -1.26183709       0.00000000
Si      -0.97943625       2.14537671      -0.17043877       0.00000000
Si      -0.07097553      -0.87045615       2.21707656       0.00000000
Si       0.61079355       3.36958650       1.01450014       0.00000000
Si      -2.33074062      -0.61229223       2.70986318       0.00000000
Si       3.05064459      -2.02689954      -0.29891124       0.00000000
Si      -0.83109951      -0.66785742      -3.51930150       0.00000000
Si       1.43902602      -3.56628825       0.46059988       0.00000000
Si      -0.05805756      -3.65760999      -1.32452918       0.00000000
