10
Lattice="16.28999089631971 0.0 0.0 0.0 16.28999089631971 0.0 0.0 0.0 34.31420841018396" Properties=species:S:1:pos:R:3:initial_magmoms:R:1 pbc="T T T"
Si      -1.50654807      -1.12839201       1.37345029       0.00000000
Si      -1.69932393       0.94360381      -1.30401138       0.00000000
Si       1.20083364       1.59624800       1.28409261       0.00000000
Si       0.92580957      -1.56436128      -1.53425984       0.00000000
Si      -2.77956270      -2.28283173      -0.22506912       0.00000000
Si      -0.13594005      -2.41766406       2.70576881       0.00000000
Si      -0.96446574      -3.12557859      -1.58504490       0.00000000
Si       2.72557764      -2.48899797      -0.08764064       0.00000000
Si       2.56997556       0.30381202       2.69719368       0.00000000
Si       3.09583305       2.26415429       0.00867999       0.00000000
