10
Lattice="16.28999089631971 0.0 0.0 0.0 16.28999089631971 0.0 0.0 0.0 34.31420841018396" Properties=species:S:1:pos:R:3:initial_magmoms:R:1 pbc="T T T"
Si      -1.34452773      -1.34899119      -1.36992691       0.00000000
Si       1.36655181       1.37166687      -1.36587783       0.00000000
Si       1.45790613      -1.25977086       1.38004961       0.00000000
Si      -1.52954955       1.15504245       1.46339886       0.00000000
Si       0.39855114       1.96893972       2.61024898       0.00000000
Si       2.34318618       0.54079542       2.69243155       0.00000000
Si      -2.69021205      -2.70948312       0.01657377       0.00000000
Si       0.00814500      -2.70003492      -2.72739775       0.00000000
Si      -2.70576900       0.01345554      -2.72499576       0.00000000
Si      -2.71215468       2.72513781       0.02175522       0.00000000
