10
Lattice="16.28999089631971 0.0 0.0 0.0 16.28999089631971 0.0 0.0 0.0 34.31420841018396" Properties=species:S:1:pos:R:3:initial_magmoms:R:1 pbc="T T T"
Si       1.35742941       1.35767376      -1.35826007       0.00000000
Si      -1.35817875      -1.35707103      -1.35822576       0.00000000
Si      -1.35783666       1.35863487       1.35952970       0.00000000
Si       1.36124127      -1.36244673       1.35506885       0.00000000
Si      -2.68354944      -0.02249649       2.71926528       0.00000000
Si       2.71391400      -2.71349046      -0.00240200       0.00000000
Si      -0.00032580      -2.71440270      -2.71542209       0.00000000
Si      -2.71510317       2.71484253      -0.00164708       0.00000000
Si       2.71423980       0.00055386      -2.71579954       0.00000000
Si       2.71505430       2.71546155      -0.00048040       0.00000000
