10
Lattice="16.28999089631971 0.0 0.0 0.0 16.28999089631971 0.0 0.0 0.0 34.31420841018396" Properties=species:S:1:pos:R:3:initial_magmoms:R:1 pbc="T T T"
Si      -1.32571278      -1.38113136       1.35973558       0.00000000
Si      -1.35726651       1.35620766      -1.36117678       0.00000000
Si       1.35783666      -1.35863487      -1.35952970       0.00000000
Si       1.35145098       1.35304740       1.38722128       0.00000000
Si       2.53405611      -0.21704796       2.82886492       0.00000000
Si      -2.82548421      -0.13328478       2.59576837       0.00000000
Si      -2.71450044      -2.71526607       0.00024020       0.00000000
Si      -2.71661814       2.71344159       0.00010294       0.00000000
Si       2.71704168       2.71437012       0.00020589       0.00000000
Si      -0.00026064       2.71467581      -2.71813291       0.00000000
