10
Lattice="16.28999089631971 0.0 0.0 0.0 16.28999089631971 0.0 0.0 0.0 34.31420841018396" Properties=species:S:1:pos:R:3:initial_magmoms:R:1 pbc="T T T"
Si      -2.01394899      -0.14685435       1.33372540       0.00000000
Si       1.27553958       1.10051982      -1.78523200       0.00000000
Si      -1.12679559      -1.44471123      -1.71976046       0.00000000
Si       1.85344362       1.06945479       1.36913768       0.00000000
Si       2.97833328      -1.08703170       1.47918341       0.00000000
Si       3.20364027       1.91441709      -0.63838189       0.00000000
Si      -1.40913387      -0.99632898       3.50152673       0.00000000
Si      -2.19945951      -3.33070227      -0.56793478       0.00000000
Si      -3.61190025      -1.76749758       0.52349786       0.00000000
Si      -3.53677077       1.67063724       1.10858975       0.00000000
