10
Lattice="16.28999089631971 0.0 0.0 0.0 16.28999089631971 0.0 0.0 0.0 34.31420841018396" Properties=species:S:1:pos:R:3:initial_magmoms:R:1 pbc="T T T"
Si       0.83836485       1.46930913       1.62570516       0.00000000
Si       0.53377443      -2.09989503       0.91821442       0.00000000
Si       0.48863484       0.91877229      -2.15150207       0.00000000
Si      -2.30216796      -0.67730562      -0.14875218       0.00000000
Si      -0.19313424      -3.32127036      -0.94892565       0.00000000
Si      -1.10159496      -0.30543750      -3.33644098       0.00000000
Si      -3.21734016       0.34741683       1.67731376       0.00000000
Si      -3.04183170       0.19544742      -2.13973229       0.00000000
Si      -0.44141013       3.40462629       1.45217811       0.00000000
Si       2.78306505      -2.04076233       1.48052166       0.00000000
