10
Lattice="16.28999089631971 0.0 0.0 0.0 16.28999089631971 0.0 0.0 0.0 34.31420841018396" Properties=species:S:1:pos:R:3:initial_magmoms:R:1 pbc="T T T"
Si       2.02904982       0.98930799       0.52569397       0.00000000
Si       1.59607791      -1.32926889      -1.29697486       0.00000000
Si      -1.21702590       1.72116882      -1.56555232       0.00000000
Si      -0.79998561      -1.23742750       2.40130965       0.00000000
Si       1.58474007       1.09085985       2.76661891       0.00000000
Si      -0.85734270       1.14165207       3.07129494       0.00000000
Si      -2.30073444       0.17285319      -2.90109637       0.00000000
Si      -3.57917364      -0.79703712       0.99192138       0.00000000
Si       0.26844291      -2.68663544      -2.86386543       0.00000000
Si      -3.51842823      -1.14954457      -1.38536831       0.00000000
