10
Lattice="16.28999089631971 0.0 0.0 0.0 16.28999089631971 0.0 0.0 0.0 34.31420841018396" Properties=species:S:1:pos:R:3:initial_magmoms:R:1 pbc="T T T"
Si      -2.28455847       0.38571462       0.18025264       0.00000000
Si      -0.24257439      -2.01191274       1.14468832       0.00000000
Si       0.98378568       1.70865810       1.33465188       0.00000000
Si       0.34573896      -0.13295898      -2.37269158       0.00000000
Si      -0.95148261      -0.84538584       3.11672698       0.00000000
Si      -2.22549093       2.71599912      -0.20856188       0.00000000
Si      -3.17554002      -1.53298674      -0.98663699       0.00000000
Si      -0.17695827       3.63239307       0.62712682       0.00000000
Si       1.85434839      -2.96535015       1.26568028       0.00000000
Si      -1.75024647      -3.29408235      -0.13114898       0.00000000
