10
Lattice="16.28999089631971 0.0 0.0 0.0 16.28999089631971 0.0 0.0 0.0 34.31420841018396" Properties=species:S:1:pos:R:3:initial_magmoms:R:1 pbc="T T T"
Si       1.35605846       1.33667595       1.35685319       0.00000000
Si       1.35370944      -1.35954711      -1.35716202       0.00000000
Si      -1.36081773       1.35439947      -1.35812281       0.00000000
Si      -1.35956340      -1.38038202       1.37016711       0.00000000
Si       2.57825807      -0.18171495       2.74349112       0.00000000
Si       0.00274148       2.61351873       2.77135428       0.00000000
Si       2.71773305       2.70853830      -0.00010294       0.00000000
Si      -0.00253477       2.71251306      -2.71473580       0.00000000
Si       2.71245509      -0.00241092      -2.71507894       0.00000000
Si      -2.71614573      -2.71511946       0.00219611       0.00000000
