10
Lattice="16.28999089631971 0.0 0.0 0.0 16.28999089631971 0.0 0.0 0.0 34.31420841018396" Properties=species:S:1:pos:R:3:initial_magmoms:R:1 pbc="T T T"
Si       1.98606281       0.16630461      -1.29474444       0.00000000
Si      -1.03693995      -1.93456782      -0.91220943       0.00000000
Si      -0.91486269       2.19496347       0.03472600       0.00000000
Si      -0.20329920      -0.63589644       2.29685714       0.00000000
Si       0.40723371      -3.48412149       0.35872094       0.00000000
Si       2.70025388      -2.03460471      -1.61973448       0.00000000
Si      -0.59263020      -2.03611968      -3.15313437       0.00000000
Si      -2.59317252       2.29574970      -1.63973968       0.00000000
Si       0.72753976      -0.16488738      -3.77912883       0.00000000
Si      -2.47210524      -0.70576425       2.99484284       0.00000000
