10
Lattice="16.28999089631971 0.0 0.0 0.0 16.28999089631971 0.0 0.0 0.0 34.31420841018396" Properties=species:S:1:pos:R:3:initial_magmoms:R:1 pbc="T T T"
Si       1.12387968       1.35467640      -1.55505217       0.00000000
Si      -0.16078230       1.58193819       1.79271251       0.00000000
Si       1.57016052      -1.39204566       1.20913044       0.00000000
Si      -1.58068386      -1.45508796      -1.33417148       0.00000000
Si       2.16256266       2.08008639       1.89809150       0.00000000
Si      -0.59305374       0.24495273       3.67440180       0.00000000
Si       2.00915973       3.15524268      -0.24267022       0.00000000
Si       2.40275871      -0.08775423      -2.92823893       0.00000000
Si       0.66689631      -1.77360633       3.41862355       0.00000000
Si      -0.33402645       2.61444726      -2.93510177       0.00000000
