10
Lattice="16.28999089631971 0.0 0.0 0.0 16.28999089631971 0.0 0.0 0.0 34.31420841018396" Properties=species:S:1:pos:R:3:initial_magmoms:R:1 pbc="T T T"
Si       1.74161277       1.29704238       0.79636459       0.00000000
Si      -1.99316295       0.09663228       1.26183709       0.00000000
Si       1.05748164      -1.93026726       0.96292585       0.00000000
Si      -0.47713410      -0.22911885      -2.37814754       0.00000000
Si      -3.13831737      -1.43464401      -0.10122697       0.00000000
Si       2.46112578      -2.34846414      -0.95946012       0.00000000
Si       0.78281595      -2.24767791      -2.63392580       0.00000000
Si      -2.82426246      -0.57122514      -2.25746440       0.00000000
Si       0.76119912       3.32060247       1.35963264       0.00000000
Si       3.38584392       1.53800406      -0.82800231       0.00000000
