10
Lattice="16.28999089631971 0.0 0.0 0.0 16.28999089631971 0.0 0.0 0.0 34.31420841018396" Properties=species:S:1:pos:R:3:initial_magmoms:R:1 pbc="T T T"
Si      -2.24929062      -0.05913270      -0.56230725       0.00000000
Si       1.39093794       1.32976899      -1.51250252       0.00000000
Si       0.85809204      -2.17689786      -0.75254533       0.00000000
Si      -0.37204731       0.89477712       2.32084278       0.00000000
Si       3.22547606       1.27189062      -0.05541748       0.00000000
Si       2.65194684      -2.46330864       0.81074226       0.00000000
Si      -2.78306505       2.04076233      -1.48052166       0.00000000
Si       2.07010062      -0.02345760      -3.31070531       0.00000000
Si       1.50402312       2.09440530       2.99381341       0.00000000
Si       3.62374538      -0.40759209       1.58730754       0.00000000
