10
Lattice="16.28999089631971 0.0 0.0 0.0 16.28999089631971 0.0 0.0 0.0 34.31420841018396" Properties=species:S:1:pos:R:3:initial_magmoms:R:1 pbc="T T T"
Si       1.48366062      -1.15569405      -1.45365362       0.00000000
Si      -0.84230703      -1.92518478       1.15947775       0.00000000
Si      -1.22706054       1.52843436      -1.44263876       0.00000000
Si       1.32763500       1.35736655       1.56689057       0.00000000
Si       1.10232801      -3.35332908       1.24166033       0.00000000
Si       2.65308714       2.67736643      -0.04731932       0.00000000
Si       2.88287911      -2.44196874      -0.04690755       0.00000000
Si       0.12569364      -2.52245763      -2.81664906       0.00000000
Si      -2.58742215       0.19233603      -2.81603140       0.00000000
Si      -2.56917735       2.85948863      -0.03723094       0.00000000
