10
Lattice="16.28999089631971 0.0 0.0 0.0 16.28999089631971 0.0 0.0 0.0 34.31420841018396" Properties=species:S:1:pos:R:3:initial_magmoms:R:1 pbc="T T T"
Si       0.32773851       2.30500961      -0.08537380       0.00000000
Si       0.63267169      -1.10381040      -1.97574460       0.00000000
Si      -2.32759665       0.32632081      -0.01369138       0.00000000
Si       0.56304839      -1.39481496       1.90594946       0.00000000
Si      -2.86695855      -1.93486104      -0.35803465       0.00000000
Si      -0.26321382       2.76394778       2.10493766       0.00000000
Si      -1.00680345      -2.84599332      -1.74820695       0.00000000
Si      -2.40490899       1.73830005       1.90461120       0.00000000
Si       1.58647074      -3.31934814       0.95753852       0.00000000
Si       2.61956951       2.77715897       0.03524071       0.00000000
