10
Lattice="16.28999089631971 0.0 0.0 0.0 16.28999089631971 0.0 0.0 0.0 34.31420841018396" Properties=species:S:1:pos:R:3:initial_magmoms:R:1 pbc="T T T"
Si       0.98041365      -2.02356009      -0.56326805       0.00000000
Si      -2.14356852       0.14561631       0.91670459       0.00000000
Si       1.56027249       0.68167134       1.62405808       0.00000000
Si      -0.17267400       0.70196868      -2.26775867       0.00000000
Si       3.25733294       1.24201476      -0.00377457       0.00000000
Si       0.36668790       2.96315053      -1.92341540       0.00000000
Si      -0.76119912      -3.32060247      -1.35963264       0.00000000
Si      -2.52113814       2.51082657       0.94491089       0.00000000
Si       1.54179963      -1.48414932       3.03622580       0.00000000
Si       2.22096231      -2.83737591       1.23802302       0.00000000
