10
Lattice="16.28999089631971 0.0 0.0 0.0 16.28999089631971 0.0 0.0 0.0 34.31420841018396" Properties=species:S:1:pos:R:3:initial_magmoms:R:1 pbc="T T T"
Si      -0.86282103      -1.49641569      -1.65075455       0.00000000
Si       1.77567679       0.71135172      -1.44806040       0.00000000
Si       0.31006549      -0.91364094       2.22517472       0.00000000
Si      -1.76038441       1.63649340       0.36994169       0.00000000
Si       1.82295037       1.04016537       2.91351812       0.00000000
Si      -1.99152322      -1.04609493       2.84753186       0.00000000
Si      -1.27086761      -0.02347389      -3.49185011       0.00000000
Si       2.59767019       2.70026298      -0.44577613       0.00000000
Si       3.44431036      -0.96062130      -1.47029602       0.00000000
Si      -3.15226717       0.87764004       2.14000680       0.00000000
