10
Lattice="16.28999089631971 0.0 0.0 0.0 16.28999089631971 0.0 0.0 0.0 34.31420841018396" Properties=species:S:1:pos:R:3:initial_magmoms:R:1 pbc="T T T"
Si      -1.72319108      -0.98541468       1.31363583       0.00000000
Si      -1.76811890       0.08653248      -1.61046964       0.00000000
Si       0.86657913       1.81654677       1.34766868       0.00000000
Si       1.78465584      -1.69771122      -0.15053652       0.00000000
Si      -0.40621835      -2.19867759       2.78865006       0.00000000
Si       2.29321335       0.54369504       2.77015469       0.00000000
Si      -3.18916076       1.90312812      -0.90644464       0.00000000
Si       3.59864508      -0.65695941       1.16052231       0.00000000
Si       0.94797700      -3.52832929       1.25393251       0.00000000
Si      -2.61480794      -2.94381477       0.10002656       0.00000000
