10
Lattice="16.28999089631971 0.0 0.0 0.0 16.28999089631971 0.0 0.0 0.0 34.31420841018396" Properties=species:S:1:pos:R:3:initial_magmoms:R:1 pbc="T T T"
Si       1.32874924      -1.22595282       1.47531276       0.00000000
Si       1.70092687       0.71959446      -1.54386028       0.00000000
Si      -0.95734701      -1.98664695      -1.10072081       0.00000000
Si      -1.38434116       1.48498011       1.44184953       0.00000000
Si       2.51366755       2.59827129       0.00276230       0.00000000
Si       2.73364771      -2.49766425       0.07966391       0.00000000
Si      -0.03514730      -2.57717574       2.82226286       0.00000000
Si       2.67687706       0.13530474       2.83145908       0.00000000
Si      -2.72549686       2.85031017       0.04506831       0.00000000
Si      -2.75248939       0.13725954       2.82387563       0.00000000
