10
Lattice="16.28999089631971 0.0 0.0 0.0 16.28999089631971 0.0 0.0 0.0 34.31420841018396" Properties=species:S:1:pos:R:3:initial_magmoms:R:1 pbc="T T T"
Si       1.35110889      -1.35361755      -1.35819144       0.00000000
Si       1.34148150       1.36329381       1.37435344       0.00000000
Si      -1.36385093       1.36071999      -1.35661299       0.00000000
Si      -1.36167458      -1.37186235       1.35695613       0.00000000
Si       2.61058653      -0.09555714       2.74863826       0.00000000
Si      -0.17518266       2.48828121       2.88294414       0.00000000
Si       2.70954828       0.00366525      -2.71477012       0.00000000
Si      -0.00527796      -2.71094922      -2.71497600       0.00000000
Si      -2.71773305      -2.70853830       0.00010294       0.00000000
Si       2.71324611      -2.71309950       0.00277945       0.00000000
