10
Lattice="16.28999089631971 0.0 0.0 0.0 16.28999089631971 0.0 0.0 0.0 34.31420841018396" Properties=species:S:1:pos:R:3:initial_magmoms:R:1 pbc="T T T"
Si      -1.35904953       1.35358497      -1.35812281       0.00000000
Si       1.35716529      -1.35912357      -1.35781399       0.00000000
Si      -1.34399757      -1.35938421       1.37445639       0.00000000
Si       1.35362547       1.34112312       1.38529968       0.00000000
Si      -2.62287660       0.08304642       2.74764315       0.00000000
Si      -2.71423092       2.71448415       0.00171571       0.00000000
Si       0.00031337       2.71448415      -2.71617700       0.00000000
Si      -2.71475220      -0.00097740      -2.71672603       0.00000000
Si       2.71583600      -0.00128691      -2.71579954       0.00000000
Si       0.00074840      -2.71586880      -2.71583386       0.00000000
