10
Lattice="16.28999089631971 0.0 0.0 0.0 16.28999089631971 0.0 0.0 0.0 34.31420841018396" Properties=species:S:1:pos:R:3:initial_magmoms:R:1 pbc="T T T"
Si       0.90196101       1.65967407      -1.62179334       0.00000000
Si      -1.63784790      -0.92362671      -1.73328026       0.00000000
Si      -1.91867597       0.50608143       1.85245358       0.00000000
Si       1.92049326      -2.03315490      -0.40346669       0.00000000
Si       2.28693681       0.58603275       1.99743119       0.00000000
Si      -2.87530622      -2.43695142      -0.41705512       0.00000000
Si      -0.28453091      -2.20046949      -3.14778135       0.00000000
Si       2.54686005       2.98954080      -0.43579069       0.00000000
Si       2.41862517       0.53468667      -3.13038404       0.00000000
Si      -1.40302023      -3.61463697       1.07839323       0.00000000
