10
Lattice="16.28999089631971 0.0 0.0 0.0 16.28999089631971 0.0 0.0 0.0 34.31420841018396" Properties=species:S:1:pos:R:3:initial_magmoms:R:1 pbc="T T T"
Si      -1.35522781      -1.35493704      -1.35668162       0.00000000
Si      -1.35401861       1.35705474       1.35654436       0.00000000
Si       1.36180979      -1.35479043       1.35788261       0.00000000
Si       1.35993644       1.35927948      -1.35623553       0.00000000
Si       2.69170910       0.00500103       2.71233381       0.00000000
Si      -2.71288026       0.00263898      -2.71343186       0.00000000
Si       0.00301039      -2.71298547      -2.71418677       0.00000000
Si       2.71717037      -2.71156824       0.00048040       0.00000000
Si      -2.71180512       2.71721014       0.00058334       0.00000000
Si      -2.71459071      -2.71583622       0.00137257       0.00000000
