10
Lattice="16.28999089631971 0.0 0.0 0.0 16.28999089631971 0.0 0.0 0.0 34.31420841018396" Properties=species:S:1:pos:R:3:initial_magmoms:R:1 pbc="T T T"
Si       1.32989931       1.35979146       1.35445119       0.00000000
Si       1.35536058      -1.35677781      -1.35740221       0.00000000
Si      -1.36180979       1.35479043      -1.35788261       0.00000000
Si      -1.36372550      -1.37350764       1.38691245       0.00000000
Si       2.60276733      -0.13300785       2.59950863       0.00000000
Si       2.71163340       2.71371852       0.00384319       0.00000000
Si       2.71298547      -0.00021177      -2.71411815       0.00000000
Si      -2.71582840       2.71184517      -0.00133825       0.00000000
Si      -0.00187335       2.71406991      -2.71411815       0.00000000
Si       2.71375110      -2.71498914       0.00398045       0.00000000
