10
Lattice="16.28999089631971 0.0 0.0 0.0 16.28999089631971 0.0 0.0 0.0 34.31420841018396" Properties=species:S:1:pos:R:3:initial_magmoms:R:1 pbc="T T T"
Si      -1.65611049      -1.10007999      -1.23544945       0.00000000
Si       0.14142489      -1.43141859       1.85430654       0.00000000
Si       1.90075304       0.21908421      -1.40925101       0.00000000
Si      -1.02342235       1.92453318       0.94841094       0.00000000
Si      -3.30034164      -1.34104167       0.38891746       0.00000000
Si      -2.05979298      -2.15485749       2.19020852       0.00000000
Si       3.58543226       1.03985586      -0.02539253       0.00000000
Si      -2.59327419       0.47335482      -2.70574547       0.00000000
Si       0.58637810       3.02902776       2.20733132       0.00000000
Si      -0.95379905       2.21553774      -2.93328312       0.00000000
