10
Lattice="16.28999089631971 0.0 0.0 0.0 16.28999089631971 0.0 0.0 0.0 34.31420841018396" Properties=species:S:1:pos:R:3:initial_magmoms:R:1 pbc="T T T"
Si      -0.89430797       0.30564927       2.13424201       0.00000000
Si      -0.19958508      -2.33222301      -0.29112191       0.00000000
Si       2.18075859       0.52070985       0.74695211       0.00000000
Si      -0.47431593       1.21578786      -1.97715148       0.00000000
Si       2.80227096      -1.73042154       1.30672010       0.00000000
Si      -1.96511157      -2.67274917       1.26101355       0.00000000
Si       3.00928428       1.49193594      -1.24447409       0.00000000
Si      -1.25816955       2.60489547       2.22016484       0.00000000
Si       1.59472584       1.12047507      -3.09747670       0.00000000
Si      -2.08411637       0.11129328      -3.23607186       0.00000000
