10
Lattice="10.86 0.0 0.0 0.0 10.86 0.0 0.0 0.0 10.86" Properties=species:S:1:pos:R:3:initial_magmoms:R:1 pbc="T T T"
Si       0.87772692      -1.60470618      -1.57335336       0.00000000
Si       0.84542928       0.91479210       2.13283884       0.00000000
Si      -1.83727308       1.11029382      -1.57335336       0.00000000
Si      -1.83727308      -1.60470618       1.14164664       0.00000000
Si       2.03156934       2.17601820      -0.17170746       0.00000000
Si       2.16661344      -2.76899592      -0.15659034       0.00000000
Si       2.23522692      -0.24720618      -2.93085336       0.00000000
Si      -0.67724046       2.50082994       2.67990048       0.00000000
Si      -0.47977308       2.46779382      -2.93085336       0.00000000
Si      -0.56527386      -2.81548758       2.74517994       0.00000000
