10
Lattice="10.86 0.0 0.0 0.0 10.86 0.0 0.0 0.0 10.86" Properties=species:S:1:pos:R:3:initial_magmoms:R:1 pbc="T T T"
Si      -1.17745206      -1.31913162       1.34124258       0.00000000
Si      -1.17745206       1.39586838      -1.37375742       0.00000000
Si       1.53754794       1.39586838       1.34124258       0.00000000
Si      -1.20974970      -1.51463334      -3.09756522       0.00000000
Si      -2.53495206       0.03836838       2.69874258       0.00000000
Si      -2.66365392      -2.58198672      -0.05553804       0.00000000
Si      -2.73241944       0.07140450      -2.55050358       0.00000000
Si      -2.53495206       2.75336838      -0.01625742       0.00000000
Si       0.18004794      -2.67663162       2.69874258       0.00000000
Si       0.18004794       2.75336838       2.69874258       0.00000000
