10
Lattice="10.86 0.0 0.0 0.0 10.86 0.0 0.0 0.0 10.86" Properties=species:S:1:pos:R:3:initial_magmoms:R:1 pbc="T T T"
Si       1.34294760      -1.30173390      -1.33282608       0.00000000
Si      -1.37205240      -1.30173390       1.38217392       0.00000000
Si       1.34294760       1.41326610       1.38217392       0.00000000
Si       2.70044760      -2.65923390       0.02467392       0.00000000
Si       2.70044760       0.05576610      -2.69032608       0.00000000
Si      -0.01455240      -2.65923390       2.73967392       0.00000000
Si      -2.96584428      -2.42322438      -0.15875148       0.00000000
Si       2.70044760       0.05576610       2.73967392       0.00000000
Si      -2.72955240       0.05576610       2.73967392       0.00000000
Si       2.70044760       2.77076610       0.02467392       0.00000000
