10
Lattice="10.86 0.0 0.0 0.0 10.86 0.0 0.0 0.0 10.86" Properties=species:S:1:pos:R:3:initial_magmoms:R:1 pbc="T T T"
Si      -1.13278488      -1.46684934       1.20546000       0.00000000
Si      -1.13278488       1.24815066      -1.50954000       0.00000000
Si       1.49606274       1.03843320       1.36101864       0.00000000
Si       1.58221512      -1.46684934      -1.50954000       0.00000000
Si      -2.49028488      -0.10934934       2.56296000       0.00000000
Si       0.37039116       2.46026784      -2.58905658       0.00000000
Si      -2.49028488       2.60565066      -0.15204000       0.00000000
Si      -0.08905200       2.60409768       2.51555610       0.00000000
Si      -2.49028488      -2.82434934      -0.15204000       0.00000000
Si      -2.49028488      -0.10934934      -2.86704000       0.00000000
