10
Lattice="10.86 0.0 0.0 0.0 10.86 0.0 0.0 0.0 10.86" Properties=species:S:1:pos:R:3:initial_magmoms:R:1 pbc="T T T"
Si      -1.29047208       1.24521846      -1.10542854       0.00000000
Si       1.42452792      -1.46978154      -1.10542854       0.00000000
Si       1.42452792       1.24521846       1.60957146       0.00000000
Si       0.06702792       2.60271846      -2.46292854       0.00000000
Si      -2.64797208      -0.11228154      -2.46292854       0.00000000
Si       2.78202792      -0.11228154      -2.46292854       0.00000000
Si      -2.67488316       2.58083556       0.33405360       0.00000000
Si       0.06702792      -2.82728154      -2.46292854       0.00000000
Si      -2.59545312      -2.74322514       0.25572042       0.00000000
Si       2.78202792       2.60271846       0.25207146       0.00000000
