10
Lattice="10.86 0.0 0.0 0.0 10.86 0.0 0.0 0.0 10.86" Properties=species:S:1:pos:R:3:initial_magmoms:R:1 pbc="T T T"
Si      -1.41001896       1.27344360      -1.36114896       0.00000000
Si       1.30498104      -1.44155640      -1.36114896       0.00000000
Si      -1.41001896      -1.44155640       1.35385104       0.00000000
Si      -2.62184292       2.48556078       0.27433446       0.00000000
Si      -0.05251896       2.63094360      -2.71864896       0.00000000
Si       2.59545312       2.74322514      -0.25572042       0.00000000
Si       2.66248104      -0.08405640      -2.71864896       0.00000000
Si       2.77740156      -0.08578314       2.61630432       0.00000000
Si       2.66248104      -2.79905640      -0.00364896       0.00000000
Si      -2.76751896      -0.08405640      -2.71864896       0.00000000
