10
Lattice="10.86 0.0 0.0 0.0 10.86 0.0 0.0 0.0 10.86" Properties=species:S:1:pos:R:3:initial_magmoms:R:1 pbc="T T T"
Si       1.25906496       1.33685514       1.41372222       0.00000000
Si      -1.45593504       1.33685514      -1.30127778       0.00000000
Si      -1.45593504      -1.37814486       1.41372222       0.00000000
Si       1.51900992      -1.72369920      -1.17203292       0.00000000
Si       2.43922116      -0.08861760      -2.59897176       0.00000000
Si      -0.02567304      -2.73645936      -2.51906388       0.00000000
Si       2.61656496       2.69435514       0.05622222       0.00000000
Si      -0.09843504       2.69435514      -2.65877778       0.00000000
Si       2.59792920      -0.09459060       2.76956064       0.00000000
Si      -0.09843504       2.69435514       2.77122222       0.00000000
