10
Lattice="16.28999089631971 0.0 0.0 0.0 16.28999089631971 0.0 0.0 0.0 34.61538196595647" Properties=species:S:1:pos:R:3:initial_magmoms:R:1 pbc="T T T"
Si       1.75876614       1.04873880       1.09370649       0.00000000
Si      -0.89063946      -1.84846607       1.09762149       0.00000000
Si       0.84554874      -0.64663874      -2.10462994       0.00000000
Si      -1.79768295       1.67081643      -0.15892280       0.00000000
Si      -2.28216384      -0.38024631       2.52260256       0.00000000
Si       0.45362763       2.34504324       2.55462873       0.00000000
Si       1.57745844       1.52101359      -2.88922263       0.00000000
Si      -1.16004348      -1.16918936      -3.38231902       0.00000000
Si      -1.03663044       3.48245991       1.14460151       0.00000000
Si       2.24054289       2.98431171      -0.79447162       0.00000000
