10
Lattice="16.28999089631971 0.0 0.0 0.0 16.28999089631971 0.0 0.0 0.0 34.61538196595647" Properties=species:S:1:pos:R:3:initial_magmoms:R:1 pbc="T T T"
Si       1.25631738       1.70158824      -1.27135446       0.00000000
Si      -1.76881707       1.62277722       0.58763105       0.00000000
Si      -0.66308445      -1.46329812      -2.09475101       0.00000000
Si      -0.48177675      -1.93557291       1.88817810       0.00000000
Si       2.16103140       0.68202972       1.94824621       0.00000000
Si      -0.37488177       3.50088390      -1.43511992       0.00000000
Si      -2.24054289      -2.98431171       0.79447162       0.00000000
Si      -3.27717333       0.49814820       1.93907313       0.00000000
Si      -1.78691526      -0.63926847       3.34910035       0.00000000
Si      -2.63169837       2.38576824      -1.49874303       0.00000000
