10
Lattice="16.28999089631971 0.0 0.0 0.0 16.28999089631971 0.0 0.0 0.0 34.61538196595647" Properties=species:S:1:pos:R:3:initial_magmoms:R:1 pbc="T T T"
Si      -1.35329175       1.35278676       1.35906989       0.00000000
Si       1.35705474       1.35633798      -1.35737373       0.00000000
Si       1.35329175      -1.35738054       1.36093912       0.00000000
Si      -1.35760860      -1.35814617      -1.35716604       0.00000000
Si      -0.00114030      -2.70266413       2.72371285       0.00000000
Si      -0.00011403       2.71376739      -2.71447054       0.00000000
Si       2.71342530      -0.00013032      -2.71502439       0.00000000
Si      -2.71492398       2.71430496       0.00128077       0.00000000
Si       2.71539639       2.71393029      -0.00114231       0.00000000
Si      -2.71533123      -0.00068418      -2.71467823       0.00000000
