10
Lattice="16.28999089631971 0.0 0.0 0.0 16.28999089631971 0.0 0.0 0.0 34.61538196595647" Properties=species:S:1:pos:R:3:initial_magmoms:R:1 pbc="T T T"
Si      -2.15850645       0.80306442       0.34971940       0.00000000
Si       0.39271932      -2.16950220      -0.82689271       0.00000000
Si       0.28742076       1.19353572      -2.06390869       0.00000000
Si       0.82673379      -0.36562905       2.26485109       0.00000000
Si      -1.28337507       2.51748918       1.72367391       0.00000000
Si       2.54658312       0.47157921      -2.14442411       0.00000000
Si       2.70260874      -1.87093908      -1.34948142       0.00000000
Si      -3.04194573      -1.05050952       1.51213919       0.00000000
Si      -1.13979501      -2.22174423      -2.63011281       0.00000000
Si      -0.54949428       1.13955066       3.44205166       0.00000000
