10
Lattice="16.28999089631971 0.0 0.0 0.0 16.28999089631971 0.0 0.0 0.0 34.61538196595647" Properties=species:S:1:pos:R:3:initial_magmoms:R:1 pbc="T T T"
Si      -1.35200484       1.34952876      -1.38215836       0.00000000
Si      -0.82393191      -1.88662635       1.22275444       0.00000000
Si       1.39378869      -1.35293337      -1.40237375       0.00000000
Si       1.24610355       1.45573956       1.49171610       0.00000000
Si       1.12070313      -3.36800637       1.26969292       0.00000000
Si      -2.68449426      -0.01844028      -2.75493594       0.00000000
Si       2.88494271      -2.54954790      -0.02333078       0.00000000
Si       0.02928942       2.69799867      -2.74943210       0.00000000
Si       0.02871927      -2.73611727      -2.75514364       0.00000000
Si       2.74348035      -0.01883124      -2.76144364       0.00000000
