10
Lattice="16.28999089631971 0.0 0.0 0.0 16.28999089631971 0.0 0.0 0.0 34.61538196595647" Properties=species:S:1:pos:R:3:initial_magmoms:R:1 pbc="T T T"
Si      -1.99765899      -1.08198180       0.53172718       0.00000000
Si       2.19789567      -0.77498046       0.26570782       0.00000000
Si       0.20316888       1.97214885       1.27346600       0.00000000
Si      -0.17681166       1.00119969      -2.14300488       0.00000000
Si       2.08386567       0.81826299      -2.76172056       0.00000000
Si       2.64153753      -1.34991972      -1.96819710       0.00000000
Si      -1.26377820      -2.45992032       2.25010493       0.00000000
Si      -3.32353467       0.78693732       1.04908897       0.00000000
Si       1.16833509       3.48260652      -0.25241551       0.00000000
Si      -1.99611144       2.51644662       1.88643553       0.00000000
