10
Lattice="16.28999089631971 0.0 0.0 0.0 16.28999089631971 0.0 0.0 0.0 34.61538196595647" Properties=species:S:1:pos:R:3:initial_magmoms:R:1 pbc="T T T"
Si       1.56100554       0.51649074       1.72291237       0.00000000
Si      -1.89949382       0.57443427       1.32552756       0.00000000
Si       0.48757599       1.54005660      -1.76247777       0.00000000
Si      -0.33997230      -2.30219144      -0.64523108       0.00000000
Si       0.95687460       2.86005159       2.14397411       0.00000000
Si      -2.20325345      -1.34510277       2.70969361       0.00000000
Si      -1.60923046      -3.15485891       1.24040829       0.00000000
Si      -1.32783374       2.51781498       2.54454353       0.00000000
Si       2.85902532       1.68881688      -1.99827789       0.00000000
Si      -0.25775667       0.62271783      -3.90465188       0.00000000
