10
Lattice="16.28999089631971 0.0 0.0 0.0 16.28999089631971 0.0 0.0 0.0 34.61538196595647" Properties=species:S:1:pos:R:3:initial_magmoms:R:1 pbc="T T T"
Si      -1.67615955      -0.96477525      -1.36273912       0.00000000
Si      -1.40048388       0.58248153       1.81841626       0.00000000
Si       1.96074585      -1.04080068       0.96746585       0.00000000
Si       1.53904662       1.50006465      -1.13351593       0.00000000
Si       1.92309966       3.12385415       0.55491950       0.00000000
Si      -3.00775302      -1.17771813       2.05182791       0.00000000
Si       3.64871565      -0.04153950      -1.16331979       0.00000000
Si      -0.94552047      -3.04072398      -2.19873568       0.00000000
Si      -0.06331923       1.68933816       3.49556707       0.00000000
Si       2.96982990      -2.34545049      -0.91363890       0.00000000
