10
Lattice="16.28999089631971 0.0 0.0 0.0 16.28999089631971 0.0 0.0 0.0 34.61538196595647" Properties=species:S:1:pos:R:3:initial_magmoms:R:1 pbc="T T T"
Si       0.33751251      -2.27486592      -0.29693091       0.00000000
Si       1.68265926       0.20654091       1.59365846       0.00000000
Si       0.53064675       1.15699725      -1.96193172       0.00000000
Si      -1.49244093       1.62188127       0.86728888       0.00000000
Si      -2.91631725       1.52972874      -0.96403893       0.00000000
Si       1.68037866       2.88552915      -0.80913501       0.00000000
Si       0.71749305      -1.30391676       3.11953997       0.00000000
Si       0.15512967       3.39558063       0.99058894       0.00000000
Si       3.54421530      -0.83443896       0.53934257       0.00000000
Si       2.59818984      -2.45780262      -0.91564660       0.00000000
