10
Lattice="16.28999089631971 0.0 0.0 0.0 16.28999089631971 0.0 0.0 0.0 34.61538196595647" Properties=species:S:1:pos:R:3:initial_magmoms:R:1 pbc="T T T"
Si      -2.10149145      -0.71482149       0.68458879       0.00000000
Si       1.17973809      -1.79369190       0.89217735       0.00000000
Si       1.14851016       1.89236043       0.75250421       0.00000000
Si       0.62749080       0.43469865      -2.24512031       0.00000000
Si       3.28318434       1.21168278       0.13375391       0.00000000
Si       2.93464350       0.14206509      -1.95210094       0.00000000
Si       3.32177535      -0.81741591       1.31991987       0.00000000
Si       0.34785666       3.62424807      -0.51144255       0.00000000
Si      -2.44936440       0.47037375       2.71883208       0.00000000
Si       1.41972237      -3.29772642      -0.89615812       0.00000000
