10
Lattice="16.28999089631971 0.0 0.0 0.0 16.28999089631971 0.0 0.0 0.0 34.61538196595647" Properties=species:S:1:pos:R:3:initial_magmoms:R:1 pbc="T T T"
Si      -1.26278451       1.28980962       1.43763300       0.00000000
Si       1.17330354       1.62150660      -1.42197788       0.00000000
Si       1.46795706      -1.45041273       1.41515030       0.00000000
Si      -1.91958102      -0.95215050      -1.39982402       0.00000000
Si       1.86515613       0.34611363      -3.22080182       0.00000000
Si      -0.48609360       0.14801094      -3.72905976       0.00000000
Si      -2.71445157       2.62990647      -0.11491621       0.00000000
Si      -2.59674003      -0.09738162       2.80045866       0.00000000
Si       0.11841201       2.61182457       2.79962789       0.00000000
Si       2.85715197       2.61376308      -0.05128618       0.00000000
