10
Lattice="16.28999089631971 0.0 0.0 0.0 16.28999089631971 0.0 0.0 0.0 34.61538196595647" Properties=species:S:1:pos:R:3:initial_magmoms:R:1 pbc="T T T"
Si      -1.35690813       1.35464382       1.35782373       0.00000000
Si      -1.35682668      -1.35759231      -1.35612758       0.00000000
Si       1.35874890       1.35635427      -1.35626604       0.00000000
Si       1.35637056      -1.35604476       1.36381220       0.00000000
Si      -2.69347005       0.01435149       2.73333593       0.00000000
Si      -2.71313208       2.71391400      -0.00045000       0.00000000
Si      -2.71261080      -2.71541594       0.00058846       0.00000000
Si       0.00076563       2.71463076      -2.71381285       0.00000000
Si      -2.71510317      -0.00014661      -2.71433208       0.00000000
Si       2.71588509      -0.00063531      -2.71395131       0.00000000
