10
Lattice="16.28999089631971 0.0 0.0 0.0 16.28999089631971 0.0 0.0 0.0 34.61538196595647" Properties=species:S:1:pos:R:3:initial_magmoms:R:1 pbc="T T T"
Si      -1.33656192      -1.34029233       1.37551220       0.00000000
Si       1.35690813      -1.35464382      -1.35782373       0.00000000
Si      -1.35622395       1.35927018      -1.35827373       0.00000000
Si       1.35863487       1.34615673       1.39074298       0.00000000
Si      -2.51667468       0.22625181       2.74700902       0.00000000
Si       2.71327869      -2.71068858       0.00598846       0.00000000
Si       0.00008145      -2.71223613      -2.71395131       0.00000000
Si      -2.71456560       0.00167787      -2.71450516       0.00000000
Si       2.71565703       0.00171045      -2.71408977       0.00000000
Si      -2.71832859      -2.71204065       0.00380769       0.00000000
