10
Lattice="16.28999089631971 0.0 0.0 0.0 16.28999089631971 0.0 0.0 0.0 34.61538196595647" Properties=species:S:1:pos:R:3:initial_magmoms:R:1 pbc="T T T"
Si       0.93994929       2.13998472      -0.23098857       0.00000000
Si       1.75663215      -1.61083665      -0.06092311       0.00000000
Si      -0.75134367       0.33216939       2.28022033       0.00000000
Si      -1.40367672      -0.93123414      -1.77037008       0.00000000
Si      -0.32628870       2.37083031      -2.30725496       0.00000000
Si      -1.56340017      -2.98308996       0.97788509       0.00000000
Si       2.87520129      -0.88203834       1.93088170       0.00000000
Si       3.05913168       1.46893446       1.52439304       0.00000000
Si       0.53077707      -3.68235124      -0.03413079       0.00000000
Si      -1.27418751      -1.82470806       3.02763608       0.00000000
