10
Lattice="16.28999089631971 0.0 0.0 0.0 16.28999089631971 0.0 0.0 0.0 34.61538196595647" Properties=species:S:1:pos:R:3:initial_magmoms:R:1 pbc="T T T"
Si       0.03992679       1.11452433      -2.03320483       0.00000000
Si      -1.98453644      -1.27968931       0.18450009       0.00000000
Si       2.06666343      -1.31911111       0.06919619       0.00000000
Si      -1.09219074      -2.67052951       2.00263943       0.00000000
Si       2.26057959       1.04676282      -2.74666286       0.00000000
Si      -0.24240497       3.41677374      -1.68788158       0.00000000
Si      -1.75403294      -0.84580516       3.32447703       0.00000000
Si       3.06613638      -1.08121195      -2.08855485       0.00000000
Si       1.42902396       1.52089467       3.29259240       0.00000000
Si      -3.55907897      -0.20007052       1.72190852       0.00000000
