10
Lattice="16.28999089631971 0.0 0.0 0.0 16.28999089631971 0.0 0.0 0.0 34.61538196595647" Properties=species:S:1:pos:R:3:initial_magmoms:R:1 pbc="T T T"
Si      -1.32595713      -1.35176049       1.38705644       0.00000000
Si       1.38632787       1.36085031       1.38463336       0.00000000
Si       1.26627057      -1.33920090      -1.52624151       0.00000000
Si      -1.50513084       1.33608951      -1.50988573       0.00000000
Si       0.32808060       2.28970611      -2.64540728       0.00000000
Si       2.21345262       0.44468442      -2.82537625       0.00000000
Si      -2.67602346       2.71621089       0.02365270       0.00000000
Si       2.71793763      -2.67929775       0.02630770       0.00000000
Si      -2.68820838      -2.71769328       0.02070001       0.00000000
Si      -2.68747533       0.00179190       2.74740709       0.00000000
