10
Lattice="16.28999089631971 0.0 0.0 0.0 16.28999089631971 0.0 0.0 0.0 34.61538196595647" Properties=species:S:1:pos:R:3:initial_magmoms:R:1 pbc="T T T"
Si      -1.35889551       1.35645201       1.35533142       0.00000000
Si       1.35839052       1.35641943      -1.35678527       0.00000000
Si      -1.35734796      -1.35816246      -1.35685450       0.00000000
Si       1.35923760      -1.35935163       1.36104296       0.00000000
Si      -2.70858717       0.02234988       2.71440131       0.00000000
Si      -2.71223613       2.71292031       0.00041538       0.00000000
Si       0.00055386       2.71430496      -2.71408977       0.00000000
Si      -2.71440270      -0.00115659      -2.71433208       0.00000000
Si       0.00035838      -2.71564074      -2.71388208       0.00000000
Si       2.71671588       2.71293660       0.00031154       0.00000000
