10
Lattice="16.28999089631971 0.0 0.0 0.0 16.28999089631971 0.0 0.0 0.0 34.61538196595647" Properties=species:S:1:pos:R:3:initial_magmoms:R:1 pbc="T T T"
Si      -0.94718205      -1.78388532       1.29913474       0.00000000
Si       1.79999613       0.90471402       1.45392097       0.00000000
Si       1.79098776      -1.06388361      -1.40088529       0.00000000
Si      -1.88537202       1.84502169       0.17996897       0.00000000
Si      -2.21345262      -0.44468442       2.82537625       0.00000000
Si       0.53473554       2.28064887       2.86150088       0.00000000
Si       3.28013811       2.11359492       0.12035775       0.00000000
Si      -0.78780069       3.59274321       1.45099943       0.00000000
Si      -3.71858346       0.89140509       1.31549052       0.00000000
Si       2.94057306      -2.79228519      -0.00792693       0.00000000
