10
Lattice="16.28999089631971 0.0 0.0 0.0 16.28999089631971 0.0 0.0 0.0 34.61538196595647" Properties=species:S:1:pos:R:3:initial_magmoms:R:1 pbc="T T T"
Si       1.48014198       1.20888090      -1.33356322       0.00000000
Si      -1.26526059       1.37593485       1.40757991       0.00000000
Si       1.45047789      -1.34625447       1.37873143       0.00000000
Si      -1.79999613      -0.90471402      -1.45392097       0.00000000
Si      -0.00900837      -1.96859763      -2.85480626       0.00000000
Si      -2.58779682       2.68802919      -0.00292154       0.00000000
Si       2.74895379       2.61881298       0.11029159       0.00000000
Si      -2.62712088       0.01145187       2.75608864       0.00000000
Si      -2.74717818      -2.68859934      -0.15478623       0.00000000
Si       0.08568540      -2.70668124       2.75975787       0.00000000
