10
Lattice="16.28999089631971 0.0 0.0 0.0 16.28999089631971 0.0 0.0 0.0 34.61538196595647" Properties=species:S:1:pos:R:3:initial_magmoms:R:1 pbc="T T T"
Si      -1.32641604      -1.36102950       1.35639065       0.00000000
Si       1.30448153      -1.41973866      -1.32690179       0.00000000
Si       1.38767619       1.35786924       1.35355219       0.00000000
Si      -1.30462002       1.35249354      -1.49642726       0.00000000
Si       0.69816773       1.98433377      -2.75309583       0.00000000
Si       2.39776208       0.16687476      -2.72214966       0.00000000
Si      -2.67856749       2.71098180      -0.02653963       0.00000000
Si      -2.68527897      -0.00588069       2.71334900       0.00000000
Si      -2.69381493      -2.71168227      -0.02999078       0.00000000
Si       0.02917851       2.70949941       2.71348746       0.00000000
