10
Lattice="16.28999089631971 0.0 0.0 0.0 16.28999089631971 0.0 0.0 0.0 34.61538196595647" Properties=species:S:1:pos:R:3:initial_magmoms:R:1 pbc="T T T"
Si      -0.31698711      -2.13219810       0.85548503       0.00000000
Si      -2.09580624       1.02379392       0.06244618       0.00000000
Si       1.88716392       0.59023557       1.29849293       0.00000000
Si       0.35530119      -0.01031157      -2.37672807       0.00000000
Si       3.10246308      -1.45233495       0.79674269       0.00000000
Si      -1.46857608       3.19774329      -0.66911571       0.00000000
Si      -3.40306245      -0.34114518      -1.46807378       0.00000000
Si      -1.26249129      -1.99300005       2.99627452       0.00000000
Si      -1.48771683      -3.49308099      -0.60954260       0.00000000
Si       1.70425980      -3.22216200       1.34456603       0.00000000
