10
Lattice="16.28999089631971 0.0 0.0 0.0 16.28999089631971 0.0 0.0 0.0 34.61538196595647" Properties=species:S:1:pos:R:3:initial_magmoms:R:1 pbc="T T T"
Si      -1.23422814       0.59800590       1.88754322       0.00000000
Si       2.09580624      -1.02379392      -0.06244618       0.00000000
Si       0.62723016       2.17394937      -0.73156189       0.00000000
Si      -1.30725621      -1.36493910      -1.53051997       0.00000000
Si       2.45110743      -1.03410549      -2.43917425       0.00000000
Si      -1.34490240       2.79971573      -1.94306632       0.00000000
Si       0.38071359      -0.36567792      -3.66130561       0.00000000
Si       1.77881913      -3.15599202       0.79303884       0.00000000
Si      -3.33132129       1.36519974       0.99758125       0.00000000
Si       0.77094054       3.49408675       1.22676982       0.00000000
