10
Lattice="16.28999089631971 0.0 0.0 0.0 16.28999089631971 0.0 0.0 0.0 34.61538196595647" Properties=species:S:1:pos:R:3:initial_magmoms:R:1 pbc="T T T"
Si      -1.35637056       1.35604476      -1.36381220       0.00000000
Si       1.36050822      -1.35966766      -1.36301604       0.00000000
Si      -1.35498591      -1.37798739       1.38018528       0.00000000
Si       1.36003581       1.37166687       1.38735067       0.00000000
Si      -2.60231121       0.04294044       2.79713212       0.00000000
Si      -2.71327869       2.71068858      -0.00598846       0.00000000
Si       2.71425609       2.71184517      -0.00252692       0.00000000
Si      -2.71454931      -2.71624800      -0.00249231       0.00000000
Si       0.00237834       2.71239903      -2.72007824       0.00000000
Si      -2.71319724      -0.00154755      -2.71993977       0.00000000
