10
Lattice="16.28999089631971 0.0 0.0 0.0 16.28999089631971 0.0 0.0 0.0 34.61538196595647" Properties=species:S:1:pos:R:3:initial_magmoms:R:1 pbc="T T T"
Si       0.14074560      -0.01277136      -2.32660497       0.00000000
Si       2.05867386      -0.19016946       1.11548131       0.00000000
Si      -0.89381601      -2.16730957       0.32656170       0.00000000
Si      -1.79716167       1.53735246       0.71027342       0.00000000
Si      -2.98856340      -1.67279241      -0.67448109       0.00000000
Si      -2.00129166      -0.98904735      -2.75434748       0.00000000
Si      -0.61735842      -2.34626010       2.66116282       0.00000000
Si       1.75491423      -2.10970650       2.49964736       0.00000000
Si      -1.72138059       3.37792698      -0.72467343       0.00000000
Si      -3.84426081       0.23084559       0.59140413       0.00000000
