10
Lattice="16.28999089631971 0.0 0.0 0.0 16.28999089631971 0.0 0.0 0.0 34.61538196595647" Properties=species:S:1:pos:R:3:initial_magmoms:R:1 pbc="T T T"
Si       0.27645759      -0.17895054       2.33460113       0.00000000
Si       0.89381601       2.16730957      -0.32656170       0.00000000
Si      -2.09474739       0.49451716      -1.00104279       0.00000000
Si       1.22557815      -2.05998520      -0.48991177       0.00000000
Si       2.64873024       0.05760307       2.17308566       0.00000000
Si      -1.10747565       1.17826222      -3.08090918       0.00000000
Si       1.03456161       2.15453821      -2.65316666       0.00000000
Si       2.95248987       1.97714011       0.78891961       0.00000000
Si      -3.31514532      -1.46654050      -0.43445790       0.00000000
Si      -0.12251709      -3.65363590       0.61819645       0.00000000
