10
Lattice="16.28999089631971 0.0 0.0 0.0 16.28999089631971 0.0 0.0 0.0 34.61538196595647" Properties=species:S:1:pos:R:3:initial_magmoms:R:1 pbc="T T T"
Si       0.94451049      -2.08630917      -0.21413087       0.00000000
Si       1.01077821       1.84019985       1.10696592       0.00000000
Si      -2.17144071      -0.53652744       0.81422347       0.00000000
Si      -0.29918214       0.32941638      -2.69688592       0.00000000
Si      -0.04821840      -3.18013380       1.51373150       0.00000000
Si       2.61152713       2.55295251      -0.50908871       0.00000000
Si      -0.74582136       3.38183658       1.44851608       0.00000000
Si       3.19683824      -2.14560477      -0.53923872       0.00000000
Si      -2.35537110      -2.88750024       1.22071213       0.00000000
Si      -2.63500524       0.30204918       2.95438989       0.00000000
