10
Lattice="16.28999089631971 0.0 0.0 0.0 16.28999089631971 0.0 0.0 0.0 34.61538196595647" Properties=species:S:1:pos:R:3:initial_magmoms:R:1 pbc="T T T"
Si      -0.31113900      -0.68092200      -2.16934720       0.00000000
Si      -0.97309944       2.11527279       0.13707699       0.00000000
Si      -0.07578108      -1.84057452       1.43494685       0.00000000
Si       2.18551527       0.86532480       0.21606933       0.00000000
Si       0.73604736      -0.51293952       3.23162464       0.00000000
Si       1.82353518      -1.36159965      -2.78809750       0.00000000
Si      -0.84672162       2.95660242      -2.07502023       0.00000000
Si       3.20517872       0.34350723      -1.89121245       0.00000000
Si      -1.11179250       1.05096564      -3.43329396       0.00000000
Si       2.86047513       0.14801094       2.44152810       0.00000000
