10
Lattice="16.28999089631971 0.0 0.0 0.0 16.28999089631971 0.0 0.0 0.0 34.61538196595647" Properties=species:S:1:pos:R:3:initial_magmoms:R:1 pbc="T T T"
Si       1.35966114      -1.35767376      -1.36104296       0.00000000
Si      -1.35680876       1.35876519      -1.36294681       0.00000000
Si      -1.35578738      -1.35475785       1.38233144       0.00000000
Si       1.36736631       1.35521397       1.38205451       0.00000000
Si      -2.71372994       2.71466334      -0.00630000       0.00000000
Si       2.71665072       2.71515204      -0.00110769       0.00000000
Si      -2.71625066      -2.71616202      -0.00173077       0.00000000
Si      -2.71324818      -0.00024435      -2.71983593       0.00000000
Si       0.00123804       2.71500543      -2.72011285       0.00000000
Si       0.00192222      -2.71590138      -2.71938593       0.00000000
