10
Lattice="16.28999089631971 0.0 0.0 0.0 16.28999089631971 0.0 0.0 0.0 34.61538196595647" Properties=species:S:1:pos:R:3:initial_magmoms:R:1 pbc="T T T"
Si      -1.34009685       1.27685907      -1.43968916       0.00000000
Si       1.10717333       1.56305808       1.37931990       0.00000000
Si       1.37461929      -1.45145529      -1.41774299       0.00000000
Si      -1.78005717      -0.76706352       1.54398536       0.00000000
Si      -2.65077396       2.69819415       0.01208078       0.00000000
Si      -2.65070880      -2.73807207       0.24788089       0.00000000
Si       0.01667672       2.61796590      -2.80637443       0.00000000
Si       2.74423688       2.68477119       0.01436539       0.00000000
Si      -2.69682579      -0.09774000      -2.80197827       0.00000000
Si       2.73320855      -2.78884800       0.06705003       0.00000000
