10
Lattice="16.28999089631971 0.0 0.0 0.0 16.28999089631971 0.0 0.0 0.0 34.61538196595647" Properties=species:S:1:pos:R:3:initial_magmoms:R:1 pbc="T T T"
Si      -2.28270141      -0.09769113       0.23313473       0.00000000
Si       0.97309944      -2.11527279      -0.13707699       0.00000000
Si       0.62866368       1.21140585       1.91603169       0.00000000
Si       0.12637782       0.84132963      -2.21209722       0.00000000
Si       3.15861471      -1.24994799       0.07899235       0.00000000
Si      -2.84037327       2.07049158      -0.56038873       0.00000000
Si       0.66196044      -2.79619479      -2.30642419       0.00000000
Si       0.80822835      -0.48005001       3.57002480       0.00000000
Si       3.51109773       1.13959953       0.17300778       0.00000000
Si      -2.72634327       0.47724813       2.46703965       0.00000000
