10
Lattice="16.28999089631971 0.0 0.0 0.0 16.28999089631971 0.0 0.0 0.0 34.61538196595647" Properties=species:S:1:pos:R:3:initial_magmoms:R:1 pbc="T T T"
Si       0.13458798       0.91748538      -2.12258179       0.00000000
Si       2.10762856      -0.28259892       0.98595048       0.00000000
Si      -1.04545962       1.49493330       1.54945459       0.00000000
Si      -0.35248302      -2.38954752      -0.09401543       0.00000000
Si      -2.88243405       0.07180632       1.74302392       0.00000000
Si       1.30893149      -1.14380235       3.02012453       0.00000000
Si       0.04613328       0.87713505       3.56614787       0.00000000
Si       1.00962718      -0.84018933      -3.43000550       0.00000000
Si      -3.51109773      -1.13959953      -0.17300778       0.00000000
Si       0.66718043      -2.91136509      -2.20129722       0.00000000
