10
Lattice="16.28999089631971 0.0 0.0 0.0 16.28999089631971 0.0 0.0 0.0 34.61538196595647" Properties=species:S:1:pos:R:3:initial_magmoms:R:1 pbc="T T T"
Si      -1.59312942      -1.04909229       1.39628144       0.00000000
Si      -1.09159290       0.61779825      -2.01669328       0.00000000
Si       1.14280281       1.91840814       0.86109272       0.00000000
Si       1.26279821      -2.02093740      -0.54602334       0.00000000
Si       2.06149528      -1.15973397      -2.58019740       0.00000000
Si      -2.92856733      -0.80532873      -1.82312396       0.00000000
Si      -0.04613328      -0.87713505      -3.56614787       0.00000000
Si      -2.74900266      -2.49678459      -0.16913085       0.00000000
Si       2.38339709       1.05700923       2.68632822       0.00000000
Si      -0.31677534      -1.98065223       3.23269771       0.00000000
