10
Lattice="16.28999089631971 0.0 0.0 0.0 16.28999089631971 0.0 0.0 0.0 34.61538196595647" Properties=species:S:1:pos:R:3:initial_magmoms:R:1 pbc="T T T"
Si      -1.35627794      -1.35640314       1.35827373       0.00000000
Si       1.35710893      -1.35739683      -1.35706219       0.00000000
Si       1.35643941       1.35900954       1.35688912       0.00000000
Si      -1.35776033       1.35762489      -1.35737373       0.00000000
Si       2.71313415      -0.00166158      -2.71447054       0.00000000
Si      -0.00048177       2.71490769       2.71353592       0.00000000
Si      -0.00148160       2.71420722      -2.71457439       0.00000000
Si       2.71448622       2.71524978      -0.00027692       0.00000000
Si      -2.71483136       2.71497285       0.00010385       0.00000000
Si      -2.71488023      -2.71536381       0.00055385       0.00000000
