10
Lattice="16.28999089631971 0.0 0.0 0.0 16.28999089631971 0.0 0.0 0.0 34.61538196595647" Properties=species:S:1:pos:R:3:initial_magmoms:R:1 pbc="T T T"
Si      -0.47982195      -0.71311104       2.20711260       0.00000000
Si      -2.04596373       0.25655121      -1.31438140       0.00000000
Si       0.83292399       2.36345094       0.02835001       0.00000000
Si       0.82148841      -2.25715869      -0.84298887       0.00000000
Si      -0.76163895      -0.10914300      -3.30324390       0.00000000
Si      -1.48346025      -2.83757139       1.79608933       0.00000000
Si      -0.40309605      -2.40331257      -2.85189368       0.00000000
Si      -1.14960159       1.23145884       3.41744011       0.00000000
Si       2.25680031       2.45560347       1.85967782       0.00000000
Si       3.74924124       0.83372220       0.99238894       0.00000000
