10
Lattice="16.28999089631971 0.0 0.0 0.0 16.28999089631971 0.0 0.0 0.0 34.61538196595647" Properties=species:S:1:pos:R:3:initial_magmoms:R:1 pbc="T T T"
Si      -1.41053711      -1.89403830       0.00193846       0.00000000
Si       1.28432478      -0.36569421      -1.98886250       0.00000000
Si      -1.39247150       2.00194326       0.16798854       0.00000000
Si       2.04596373      -0.25655121       1.31438140       0.00000000
Si       1.64286768      -2.65986378      -1.53751228       0.00000000
Si       0.15404313       3.60860967      -0.44601945       0.00000000
Si       2.87888772       2.10689973       1.34273142       0.00000000
Si       2.86745214      -2.51370990       0.47139254       0.00000000
Si      -1.54512509      -2.81152368       2.12452026       0.00000000
Si      -3.53164172      -1.33996653      -0.80840808       0.00000000
