10
Lattice="10.86 0.0 0.0 0.0 10.86 0.0 0.0 0.0 10.86" Properties=species:S:1:pos:R:3:initial_magmoms:R:1 pbc="T T T"
Si      -1.39068816       1.41206064       1.28369544       0.00000000
Si      -1.39068816      -1.30293936      -1.43130456       0.00000000
Si       1.32431184       1.41206064      -1.43130456       0.00000000
Si       2.64372582      -0.04172412       2.61679302       0.00000000
Si       2.68044348      -2.58553794      -0.00750426       0.00000000
Si      -0.14971596      -2.66629290       2.70961344       0.00000000
Si      -2.74818816       0.05456064       2.64119544       0.00000000
Si      -2.74818816      -2.66043936      -0.07380456       0.00000000
Si      -0.03318816       2.76956064       2.64119544       0.00000000
Si      -0.03318816      -2.66043936      -2.78880456       0.00000000
