10
Lattice="10.86 0.0 0.0 0.0 10.86 0.0 0.0 0.0 10.86" Properties=species:S:1:pos:R:3:initial_magmoms:R:1 pbc="T T T"
Si       1.22722344      -1.14155976      -1.24664112       0.00000000
Si      -1.48777656      -1.14155976       1.46835888       0.00000000
Si       1.27775502       1.80820086       0.91423824       0.00000000
Si      -1.48777656       1.57344024      -1.24664112       0.00000000
Si       2.49866880       0.15781752      -2.55871374       0.00000000
Si       2.58472344      -2.49905976       0.11085888       0.00000000
Si      -0.13027656      -2.49905976      -2.60414112       0.00000000
Si       2.46064794       0.42094446       2.73869652       0.00000000
Si      -0.13027656      -2.49905976       2.82585888       0.00000000
Si      -2.84527656      -2.49905976       0.11085888       0.00000000
