10
Lattice="10.86 0.0 0.0 0.0 10.86 0.0 0.0 0.0 10.86" Properties=species:S:1:pos:R:3:initial_magmoms:R:1 pbc="T T T"
Si       0.05790552      -1.75769100       1.71670536       0.00000000
Si      -1.32143394       1.94155080       0.76825812       0.00000000
Si      -1.49129520      -0.71829126      -1.91487864       0.00000000
Si       1.12386882       2.04920598      -1.43015340       0.00000000
Si      -2.70762606      -1.99245162      -0.44417400       0.00000000
Si      -2.70762606       0.72254838       2.27082600       0.00000000
Si       0.00737394      -1.99245162      -3.15917400       0.00000000
Si      -1.21984950      -3.56589186       0.80246712       0.00000000
Si      -1.07212092      -0.88756608       3.71827938       0.00000000
Si       1.27881930      -3.40807434      -1.75624662       0.00000000
