10
Lattice="10.86 0.0 0.0 0.0 10.86 0.0 0.0 0.0 10.86" Properties=species:S:1:pos:R:3:initial_magmoms:R:1 pbc="T T T"
Si      -1.38619212       1.49599758      -1.21243212       0.00000000
Si      -1.38619212      -1.21900242       1.50256788       0.00000000
Si       1.32143394      -1.94155080      -0.76825812       0.00000000
Si       1.32880788       1.49599758       1.50256788       0.00000000
Si       2.44530276       0.10765518      -2.19841152       0.00000000
Si      -2.74369212       0.13849758      -2.56993212       0.00000000
Si      -2.74369212      -2.57650242       0.14506788       0.00000000
Si      -0.16986126      -2.65984206      -2.68313676       0.00000000
Si      -0.02869212       2.85349758      -2.56993212       0.00000000
Si       2.68630788       2.85349758       0.14506788       0.00000000
