10
Lattice="10.86 0.0 0.0 0.0 10.86 0.0 0.0 0.0 10.86" Properties=species:S:1:pos:R:3:initial_magmoms:R:1 pbc="T T T"
Si      -1.27775502      -1.80820086      -0.91423824       0.00000000
Si      -0.05790552       1.75769100      -1.71670536       0.00000000
Si      -1.13002644       0.87012492       2.00157402       0.00000000
Si       1.18289292      -1.38725640       1.82445828       0.00000000
Si      -2.76553158      -0.23476062      -2.16087936       0.00000000
Si      -0.05053158      -2.94976062      -2.16087936       0.00000000
Si      -2.76553158       2.48023938       0.55412064       0.00000000
Si       2.66446842      -2.94976062       0.55412064       0.00000000
Si       1.22091378      -1.65038334      -3.47295198       0.00000000
Si      -1.37933946       3.69924180      -0.94844724       0.00000000
