10
Lattice="10.86 0.0 0.0 0.0 10.86 0.0 0.0 0.0 10.86" Properties=species:S:1:pos:R:3:initial_magmoms:R:1 pbc="T T T"
Si       1.36442868       1.19035374       1.47814374       0.00000000
Si       1.36442868      -1.52464626      -1.23685626       0.00000000
Si      -1.35057132      -1.52464626       1.47814374       0.00000000
Si      -2.73271266       2.48595174       0.26952348       0.00000000
Si       2.72192868       2.54785374       0.12064374       0.00000000
Si       2.72192868      -0.16714626      -2.59435626       0.00000000
Si       0.00692868       2.54785374       2.83564374       0.00000000
Si       0.29935590       2.73426564      -2.69078220       0.00000000
Si      -2.70807132      -0.16714626       2.83564374       0.00000000
Si       2.72192868      -0.16714626       2.83564374       0.00000000
