10
Lattice="10.86 0.0 0.0 0.0 10.86 0.0 0.0 0.0 10.86" Properties=species:S:1:pos:R:3:initial_magmoms:R:1 pbc="T T T"
Si       1.28999424       1.27362822       1.32160770       0.00000000
Si      -1.42500576       1.27362822      -1.39339230       0.00000000
Si       1.28999424      -1.44137178      -1.39339230       0.00000000
Si      -0.17067576      -2.61995328       2.29614066       0.00000000
Si       0.04490610       2.49414018       2.63473374       0.00000000
Si       2.64749424       2.63112822      -0.03589230       0.00000000
Si       2.64749424      -0.08387178       2.67910770       0.00000000
Si      -0.06750576       2.63112822      -2.75089230       0.00000000
Si       2.64749424      -0.08387178      -2.75089230       0.00000000
Si       2.64749424      -2.79887178      -0.03589230       0.00000000
