10
Lattice="10.86 0.0 0.0 0.0 10.86 0.0 0.0 0.0 10.86" Properties=species:S:1:pos:R:3:initial_magmoms:R:1 pbc="T T T"
Si       1.25567664      -1.24190616      -1.28769192       0.00000000
Si      -1.45932336      -1.24190616       1.42730808       0.00000000
Si      -1.45932336       1.47309384      -1.28769192       0.00000000
Si       2.51000664       0.29451234       2.40184104       0.00000000
Si       2.61317664      -2.59940616       0.06980808       0.00000000
Si      -0.10182336      -2.59940616      -2.64519192       0.00000000
Si       2.61317664       0.11559384      -2.64519192       0.00000000
Si      -0.10182336      -2.59940616       2.78480808       0.00000000
Si      -2.81682336      -2.59940616       0.06980808       0.00000000
Si      -2.81682336       0.11559384      -2.64519192       0.00000000
