10
Lattice="16.28999089631971 0.0 0.0 0.0 16.28999089631971 0.0 0.0 0.0 34.40246978574605" Properties=species:S:1:pos:R:3:initial_magmoms:R:1 pbc="T T T"
Si       1.33877769       1.34905635       1.36859294       0.00000000
Si      -1.27841022       1.41374394      -1.37852838       0.00000000
Si      -1.37732310      -1.36600447       1.36529030       0.00000000
Si       1.41135289      -1.25524876      -1.51312811       0.00000000
Si      -2.08556343      -0.49734999      -2.64723988       0.00000000
Si      -0.38249280      -2.36746968      -2.69576669       0.00000000
Si       2.69730178      -2.70172908      -0.00853870       0.00000000
Si       0.23828719       2.78299989      -2.60291262       0.00000000
Si       2.72106889       2.69954622       0.01621733       0.00000000
Si       2.69943577      -0.00377928       2.72645918       0.00000000
