10
Lattice="16.28999089631971 0.0 0.0 0.0 16.28999089631971 0.0 0.0 0.0 34.40246978574605" Properties=species:S:1:pos:R:3:initial_magmoms:R:1 pbc="T T T"
Si       1.29596724      -1.35650088      -1.39553697       0.00000000
Si      -0.91617566      -1.71836694       1.34041527       0.00000000
Si       1.74500109       1.05749793       1.37289122       0.00000000
Si      -1.84214325       1.23351138      -1.55385722       0.00000000
Si      -2.31120549      -0.32477373       2.75584376       0.00000000
Si       0.39628683       2.43207161       2.75045977       0.00000000
Si      -0.39091113      -2.12587758      -3.02315312       0.00000000
Si      -2.64261986      -1.03114071      -2.49627901       0.00000000
Si      -2.68350776       2.76633100       0.06323177       0.00000000
Si      -2.21967084      -3.21243687      -0.00591723       0.00000000
