10
Lattice="16.28999089631971 0.0 0.0 0.0 16.28999089631971 0.0 0.0 0.0 34.40246978574605" Properties=species:S:1:pos:R:3:initial_magmoms:R:1 pbc="T T T"
Si       1.32458877       1.35121909       1.36072509       0.00000000
Si      -1.22290659       1.39035256      -1.43941734       0.00000000
Si      -1.39178502      -1.35829565       1.35673440       0.00000000
Si       1.38202731      -1.33835669      -1.42555658       0.00000000
Si      -2.11304106      -0.47337398      -2.65250759       0.00000000
Si      -0.43794036      -2.18858066      -2.67736545       0.00000000
Si       2.66294259      -2.70854117       0.01555337       0.00000000
Si       2.68552053      -0.00158583       2.71855693       0.00000000
Si      -2.72688084       2.68099623       0.00641262       0.00000000
Si       2.69384472       2.71737180      -0.02686146       0.00000000
