10
Lattice="16.28999089631971 0.0 0.0 0.0 16.28999089631971 0.0 0.0 0.0 34.40246978574605" Properties=species:S:1:pos:R:3:initial_magmoms:R:1 pbc="T T T"
Si      -1.35775521      -1.35571697      -1.35700618       0.00000000
Si      -1.35720135       1.35719158       1.35762542       0.00000000
Si       1.35742941      -1.35761226       1.35717819       0.00000000
Si       1.35816246       1.35849478      -1.35693737       0.00000000
Si       2.71349046      -0.00334108      -2.71504443       0.00000000
Si      -2.71440270      -0.00059784      -2.71428758       0.00000000
Si      -2.71454931      -2.71502239      -0.00013761       0.00000000
Si      -2.71453302       2.71514227       0.00000000       0.00000000
Si       2.71536381      -2.71456627      -0.00020641       0.00000000
Si       2.71557558      -0.00033069       2.71501003       0.00000000
