10
Lattice="16.28999089631971 0.0 0.0 0.0 16.28999089631971 0.0 0.0 0.0 34.40246978574605" Properties=species:S:1:pos:R:3:initial_magmoms:R:1 pbc="T T T"
Si       1.35985662       1.34815877      -1.40203904       0.00000000
Si      -1.35448092      -1.36403568      -1.40465363       0.00000000
Si       1.25734365      -1.54676061       1.43809285       0.00000000
Si      -1.45443636       1.45526552       1.54102509       0.00000000
Si       2.69649999      -2.71806048      -0.05497518       0.00000000
Si       2.68933239       2.74372307      -0.03911563       0.00000000
Si      -2.73201219       2.70697283      -0.02917331       0.00000000
Si      -2.72644101      -2.72078091      -0.02889809       0.00000000
Si       0.00115659       2.70637010      -2.76451521       0.00000000
Si      -2.71528236      -0.00970232      -2.76527207       0.00000000
