10
Lattice="16.28999089631971 0.0 0.0 0.0 16.28999089631971 0.0 0.0 0.0 34.40246978574605" Properties=species:S:1:pos:R:3:initial_magmoms:R:1 pbc="T T T"
Si       2.19915000      -0.65331045       0.59874092       0.00000000
Si      -0.14884173       2.34382149       0.33095194       0.00000000
Si      -0.25190856      -0.20440692      -2.36974665       0.00000000
Si      -1.94378796      -0.76546710       1.27757083       0.00000000
Si      -0.51209244       2.04854895       2.69601986       0.00000000
Si      -2.31441804      -1.42876332      -2.39262431       0.00000000
Si      -3.53559789      -0.65076921      -0.44671632       0.00000000
Si       0.95257404       0.34287192       3.64360201       0.00000000
Si       3.43052739      -0.92572812      -1.37947100       0.00000000
Si       2.91045285       0.72506790       2.36427665       0.00000000
