10
Lattice="16.28999089631971 0.0 0.0 0.0 16.28999089631971 0.0 0.0 0.0 34.40246978574605" Properties=species:S:1:pos:R:3:initial_magmoms:R:1 pbc="T T T"
Si      -1.76500521      -0.95625558      -1.26604600       0.00000000
Si       0.95711895       1.71543474      -1.37286573       0.00000000
Si      -0.14910237       1.53064098       1.97480608       0.00000000
Si       1.75097952      -1.82068443       0.41104094       0.00000000
Si      -0.39094371      -2.34813834      -2.67496553       0.00000000
Si       2.33383572       0.37133055      -2.70658142       0.00000000
Si      -2.70448209       1.48103793       1.92031253       0.00000000
Si       3.46845051      -0.93066399      -1.12368850       0.00000000
Si      -0.03574026      -0.31455990       3.79373448       0.00000000
Si      -1.94901705      -1.82092878       2.75078862       0.00000000
