10
Lattice="16.28999089631971 0.0 0.0 0.0 16.28999089631971 0.0 0.0 0.0 34.40246978574605" Properties=species:S:1:pos:R:3:initial_magmoms:R:1 pbc="T T T"
Si      -0.05968656       2.22039216       0.76724431       0.00000000
Si      -2.13889329      -1.08087408       0.09612055       0.00000000
Si       0.36325071       0.29527254      -2.36506791       0.00000000
Si       1.46466648      -1.70567703       0.94758216       0.00000000
Si       0.51209244      -2.04854895      -2.69601986       0.00000000
Si      -1.43169552      -2.81401605      -1.41844902       0.00000000
Si       1.43821152       2.10030228       2.55596732       0.00000000
Si       3.42254529      -1.32348105      -0.33174320       0.00000000
Si      -2.17891782       2.59721244       1.68967825       0.00000000
Si       3.65883174       1.01240721      -0.84248255       0.00000000
