10
Lattice="16.28999089631971 0.0 0.0 0.0 16.28999089631971 0.0 0.0 0.0 34.40246978574605" Properties=species:S:1:pos:R:3:initial_magmoms:R:1 pbc="T T T"
Si       1.35747828      -1.35703845      -1.35655895       0.00000000
Si       1.35645201       1.35808101       1.35710939       0.00000000
Si      -1.35767376      -1.35702216       1.35762542       0.00000000
Si      -1.35793440       1.35806472      -1.35666215       0.00000000
Si       0.00179190      -2.71254564      -2.71411557       0.00000000
Si       0.00443088       2.71096551       2.71631732       0.00000000
Si       2.71440270      -2.71404432       0.00120409       0.00000000
Si       0.00086337      -2.71324611       2.71562928       0.00000000
Si       2.71498914       2.71489140       0.00065365       0.00000000
Si      -2.71549413      -2.71453302       0.00024082       0.00000000
