10
Lattice="16.28999089631971 0.0 0.0 0.0 16.28999089631971 0.0 0.0 0.0 34.40246978574605" Properties=species:S:1:pos:R:3:initial_magmoms:R:1 pbc="T T T"
Si       0.95001651      -1.47701430      -1.59964693       0.00000000
Si      -1.85111415       1.09705005      -1.01212123       0.00000000
Si       1.34724816       1.98017982       0.42043282       0.00000000
Si       0.22235850      -1.82620674       1.66184663       0.00000000
Si      -1.68816528      -3.10358709       0.62454279       0.00000000
Si       2.40798780      -0.01211976      -2.69595105       0.00000000
Si      -0.67709385       2.38428585      -2.69842803       0.00000000
Si       1.15066044       2.02414653       2.88918983       0.00000000
Si      -2.34861075       3.04173396       0.34264879       0.00000000
Si       0.29398563       3.71830653      -1.02650147       0.00000000
