10
Lattice="16.28999089631971 0.0 0.0 0.0 16.28999089631971 0.0 0.0 0.0 34.40246978574605" Properties=species:S:1:pos:R:3:initial_magmoms:R:1 pbc="T T T"
Si       1.45797129       1.46489454      -1.09630412       0.00000000
Si      -0.95001651       1.47701430       1.59964693       0.00000000
Si      -1.53196047      -1.44177903      -1.12348208       0.00000000
Si       1.59734853      -1.96271694       0.27091960       0.00000000
Si      -0.72765801      -0.34919244       3.26149357       0.00000000
Si       1.45518570      -1.57830552       2.69292363       0.00000000
Si       2.58499494      -0.06488307      -2.44856275       0.00000000
Si      -0.13370832       2.63919177      -2.44267993       0.00000000
Si      -0.15524370      -2.78588322      -2.45719778       0.00000000
Si      -2.87738415      -0.06553467      -2.44226710       0.00000000
