10
Lattice="16.28999089631971 0.0 0.0 0.0 16.28999089631971 0.0 0.0 0.0 34.40246978574605" Properties=species:S:1:pos:R:3:initial_magmoms:R:1 pbc="T T T"
Si      -0.22235850       1.82620674      -1.66184663       0.00000000
Si      -1.91052378      -1.27738035      -1.03730385       0.00000000
Si      -0.25783812       0.36131220       2.49868718       0.00000000
Si       2.18284371      -1.22911308      -0.56856994       0.00000000
Si       0.72765801       0.34919244      -3.26149357       0.00000000
Si      -3.22831962      -0.41458050       0.98948439       0.00000000
Si      -1.79716167      -3.12258123       0.78162455       0.00000000
Si      -0.78336981       2.65012236       2.47601594       0.00000000
Si       2.07384732      -3.29986530       0.49319408       0.00000000
Si      -2.23904421      -0.65761101       3.24556522       0.00000000
