10
Lattice="16.28999089631971 0.0 0.0 0.0 16.28999089631971 0.0 0.0 0.0 34.40246978574605" Properties=species:S:1:pos:R:3:initial_magmoms:R:1 pbc="T T T"
Si      -1.35755973       1.35671265      -1.35728140       0.00000000
Si       1.35812988       1.35593073       1.35772863       0.00000000
Si       1.35676152      -1.35814617      -1.35707498       0.00000000
Si      -1.35764118      -1.35799956       1.35965517       0.00000000
Si       2.71166598       0.00428427       2.71291148       0.00000000
Si       2.71441899       2.71412278       0.00003440       0.00000000
Si      -2.71440270      -0.00149868      -2.71487242       0.00000000
Si      -0.00185706      -2.71502172      -2.71476921       0.00000000
Si      -0.00076563       2.71601807      -2.71414997       0.00000000
Si      -2.71555929       2.71464713       0.00051604       0.00000000
