10
Lattice="16.28999089631971 0.0 0.0 0.0 16.28999089631971 0.0 0.0 0.0 34.40246978574605" Properties=species:S:1:pos:R:3:initial_magmoms:R:1 pbc="T T T"
Si       1.34159553       1.36238157      -1.36388668       0.00000000
Si      -1.49340204       1.22210838       1.34389883       0.00000000
Si      -1.36560699      -1.36216980      -1.36079045       0.00000000
Si       1.59167961      -1.17429723       1.34637581       0.00000000
Si       0.13370832      -2.63919177       2.44267993       0.00000000
Si       2.68219737       2.72041371      -0.00870383       0.00000000
Si       2.70001863      -0.00013032      -2.71762462       0.00000000
Si       2.71870326      -2.70407484      -0.00588283       0.00000000
Si      -0.01194057       2.71402803      -2.71906952       0.00000000
Si      -0.01358586      -2.71505430      -2.71999839       0.00000000
