10
Lattice="16.28999089631971 0.0 0.0 0.0 16.28999089631971 0.0 0.0 0.0 34.40246978574605" Properties=species:S:1:pos:R:3:initial_magmoms:R:1 pbc="T T T"
Si       0.97107948       1.33402068       1.67192656       0.00000000
Si       1.49340204      -1.22210838      -1.34389883       0.00000000
Si      -1.24734159       1.49558490      -1.32652557       0.00000000
Si      -1.17402030      -1.28723580       1.68630680       0.00000000
Si      -1.67151690       0.65744811       3.04107682       0.00000000
Si      -2.53711863      -2.47168170       0.08129308       0.00000000
Si       0.67709385      -2.38428585       2.69842803       0.00000000
Si       2.02434201      -0.40410603       3.11886085       0.00000000
Si       0.12779505      -2.58427818      -2.70468928       0.00000000
Si      -2.59812468       0.14589324      -2.70424205       0.00000000
