10
Lattice="16.28999089631971 0.0 0.0 0.0 16.28999089631971 0.0 0.0 0.0 34.40246978574605" Properties=species:S:1:pos:R:3:initial_magmoms:R:1 pbc="T T T"
Si      -2.29273605       0.36843093       0.45861958       0.00000000
Si      -0.05111802      -2.30492097      -0.55924686       0.00000000
Si       1.30877118      -0.32534388       1.95454301       0.00000000
Si       1.65696993       1.08445203      -1.73911462       0.00000000
Si       3.07411848      -1.36313091       0.80064913       0.00000000
Si       1.40320431       3.33746981      -0.91699834       0.00000000
Si       0.14546970      -2.34888768      -3.02800388       0.00000000
Si      -2.86360281       2.62784483      -0.04179902       0.00000000
Si       2.05271919      -3.32379531      -0.05494077       0.00000000
Si       0.60204582      -2.32743375       3.08246302       0.00000000
