10
Lattice="16.28999089631971 0.0 0.0 0.0 16.28999089631971 0.0 0.0 0.0 34.40246978574605" Properties=species:S:1:pos:R:3:initial_magmoms:R:1 pbc="T T T"
Si       0.03911229       1.53558241       1.80702514       0.00000000
Si      -2.35926441       0.08589717      -0.32599799       0.00000000
Si       0.63447921       0.81844218      -2.15032758       0.00000000
Si       1.19465973      -2.11670631       0.23744598       0.00000000
Si      -0.89870301      -0.54719739      -3.32844081       0.00000000
Si      -3.13023101      -1.64721222       1.07404571       0.00000000
Si      -1.17584478      -2.75551866      -2.25573680       0.00000000
Si       1.16442549      -3.05514063      -1.91952128       0.00000000
Si      -1.98224865       1.22838003       3.04909260       0.00000000
Si      -3.04306974       2.38526392      -0.16286138       0.00000000
