10
Lattice="16.28999089631971 0.0 0.0 0.0 16.28999089631971 0.0 0.0 0.0 34.40246978574605" Properties=species:S:1:pos:R:3:initial_magmoms:R:1 pbc="T T T"
Si       2.22563754      -0.01599678      -0.58009477       0.00000000
Si      -1.43324307       0.58278031      -1.72070929       0.00000000
Si      -0.22517667       1.61381513       1.72504401       0.00000000
Si      -0.16980696      -2.13713397       1.09258865       0.00000000
Si      -3.45460401       0.27557793      -0.47864183       0.00000000
Si       3.19005441       0.61166248       1.45945679       0.00000000
Si      -1.79525574       0.59239467       3.14627963       0.00000000
Si       2.91806028      -2.25186444      -0.94634367       0.00000000
Si       2.12577984      -2.95471278       1.14993760       0.00000000
Si       1.77132573       1.95578459       2.75856358       0.00000000
