10
Lattice="16.28999089631971 0.0 0.0 0.0 16.28999089631971 0.0 0.0 0.0 34.40246978574605" Properties=species:S:1:pos:R:3:initial_magmoms:R:1 pbc="T T T"
Si       1.35466011      -1.35423373      -1.35776303       0.00000000
Si       1.35619137       1.35585930       1.35759102       0.00000000
Si      -1.36093176       1.35280493      -1.35783184       0.00000000
Si      -1.35905841      -1.35842026       1.35700618       0.00000000
Si      -2.68552053       0.00158583      -2.71855693       0.00000000
Si      -0.02257794      -2.70695533      -2.70300356       0.00000000
Si       2.70749574       0.00352148      -2.71488274       0.00000000
Si       2.71181259      -0.00088291       2.71432198       0.00000000
Si      -0.00130320       2.71323984       2.71421877       0.00000000
Si       2.71393029       2.71389144       0.00010321       0.00000000
