10
Lattice="16.28999089631971 0.0 0.0 0.0 16.28999089631971 0.0 0.0 0.0 34.40246978574605" Properties=species:S:1:pos:R:3:initial_magmoms:R:1 pbc="T T T"
Si      -1.12205520      -0.73107958       1.87803188       0.00000000
Si      -0.24286761       2.18542405      -0.72898874       0.00000000
Si      -0.58406166      -1.54321753      -1.72401193       0.00000000
Si       2.07422199      -0.47382790       1.13345881       0.00000000
Si      -0.42963246      -2.96694724       1.51178298       0.00000000
Si       0.98850978       1.91300638      -2.70720067       0.00000000
Si       1.93702761      -2.80460110       1.09485921       0.00000000
Si       0.46843524       3.56380240       1.03654699       0.00000000
Si       1.94132817       0.62429144       3.22485492       0.00000000
Si      -1.29078702      -3.54530740      -0.59609193       0.00000000
