10
Lattice="16.28999089631971 0.0 0.0 0.0 16.28999089631971 0.0 0.0 0.0 34.40246978574605" Properties=species:S:1:pos:R:3:initial_magmoms:R:1 pbc="T T T"
Si       1.59070221      -1.07774640      -1.37241849       0.00000000
Si      -1.76515182      -1.16709705       1.08656821       0.00000000
Si      -0.91738764       1.59716934      -1.51443197       0.00000000
Si       1.25002944       0.68978376       1.92994523       0.00000000
Si      -0.15915330      -2.98991547       1.41373588       0.00000000
Si       0.74303577       2.95046109       1.42020355       0.00000000
Si       0.16635348      -2.95699338      -2.02321038       0.00000000
Si      -3.31418421      -1.18578168      -0.70115713       0.00000000
Si       0.36756756       1.37977929      -3.45720933       0.00000000
Si      -3.20518782       0.88497054      -1.76292115       0.00000000
