10
Lattice="16.28999089631971 0.0 0.0 0.0 16.28999089631971 0.0 0.0 0.0 34.40246978574605" Properties=species:S:1:pos:R:3:initial_magmoms:R:1 pbc="T T T"
Si       1.76534730      -1.03778703      -1.15389388       0.00000000
Si      -1.30877118       0.32534388      -1.95454301       0.00000000
Si       0.58406166       1.54321753       1.72401193       0.00000000
Si      -0.70672536      -2.00208987       1.12792000       0.00000000
Si      -1.35988920      -1.97957709      -2.51378987       0.00000000
Si       0.15442920      -1.42372971       3.23579491       0.00000000
Si       3.23426547      -1.62458541       0.57417754       0.00000000
Si       0.74394801      -2.99845143      -2.00948379       0.00000000
Si      -0.53799354       0.81213795       3.60204381       0.00000000
Si       0.34119405       3.72864158       0.99502319       0.00000000
