10
Lattice="16.28999089631971 0.0 0.0 0.0 16.28999089631971 0.0 0.0 0.0 34.40246978574605" Properties=species:S:1:pos:R:3:initial_magmoms:R:1 pbc="T T T"
Si       2.01360690       0.82694297      -0.82221949       0.00000000
Si      -0.13719438      -2.33077320      -0.03859959       0.00000000
Si      -0.13289382       1.09811934       2.09139611       0.00000000
Si      -2.07422199       0.47382790      -1.13345881       0.00000000
Si      -3.19627719      -0.25725168       0.74457307       0.00000000
Si       0.27256428       3.23790533       1.12406693       0.00000000
Si      -2.50385445      -2.49311934       0.37832417       0.00000000
Si       0.57598182      -2.69397504      -2.28329320       0.00000000
Si      -2.23186032       0.37040758       2.78412463       0.00000000
Si       3.70270071      -0.34736796       0.35124941       0.00000000
