10
Lattice="16.28999089631971 0.0 0.0 0.0 16.28999089631971 0.0 0.0 0.0 34.40246978574605" Properties=species:S:1:pos:R:3:initial_magmoms:R:1 pbc="T T T"
Si      -1.30437029       1.37741724      -1.29537068       0.00000000
Si       1.32673579       1.37119446       1.34426006       0.00000000
Si      -1.38213875      -1.34514675       1.34140465       0.00000000
Si       1.55957691      -1.21098231      -1.34763494       0.00000000
Si      -2.60888978       0.02622690      -2.64912858       0.00000000
Si       0.22921985      -2.62778877      -2.62748631       0.00000000
Si       0.07227678       2.53296468      -2.78948939       0.00000000
Si       2.68854395       0.01396053       2.70088781       0.00000000
Si      -0.02527291      -2.70213633       2.70202309       0.00000000
Si       2.71200155      -2.71124244      -0.00835636       0.00000000
