10
Lattice="16.28999089631971 0.0 0.0 0.0 16.28999089631971 0.0 0.0 0.0 34.40246978574605" Properties=species:S:1:pos:R:3:initial_magmoms:R:1 pbc="T T T"
Si      -0.79228044      -0.70284834       2.09628127       0.00000000
Si      -0.86115456      -0.57836016      -2.10787490       0.00000000
Si      -0.69242274       2.23586766       0.36624890       0.00000000
Si       2.36666007       0.16234614      -0.41692376       0.00000000
Si       0.42963246       2.96694724      -1.51178298       0.00000000
Si      -0.15442920       1.42372971      -3.23579491       0.00000000
Si       2.50385445       2.49311934      -0.37832417       0.00000000
Si       0.48213513       0.73489077       3.46133763       0.00000000
Si      -3.08786724       0.11473047       2.03893232       0.00000000
Si       0.27199413       2.86352692       2.40580046       0.00000000
