10
Lattice="16.28999089631971 0.0 0.0 0.0 16.28999089631971 0.0 0.0 0.0 34.40246978574605" Properties=species:S:1:pos:R:3:initial_magmoms:R:1 pbc="T T T"
Si      -1.34658027      -1.34995230      -1.36092806       0.00000000
Si      -1.35529542       1.35705474       1.35532046       0.00000000
Si       1.36111095      -1.35583299       1.35549247       0.00000000
Si       1.36734434       1.33490034      -1.37398381       0.00000000
Si      -2.62679508       0.18179640      -2.65736522       0.00000000
Si       0.08223192      -2.70831024      -2.64162608       0.00000000
Si      -2.71269225       0.00008145       2.71291148       0.00000000
Si       0.00177561       2.71502172       2.71242984       0.00000000
Si       0.00307881      -2.71531494       2.71253305       0.00000000
Si       2.71333800      -2.71453302      -0.00199534       0.00000000
