10
Lattice="16.28999089631971 0.0 0.0 0.0 16.28999089631971 0.0 0.0 0.0 34.40246978574605" Properties=species:S:1:pos:R:3:initial_magmoms:R:1 pbc="T T T"
Si       1.30437029      -1.37741724       1.29537068       0.00000000
Si      -1.30451949      -1.35119034      -1.35375790       0.00000000
Si       1.37664707       1.15554744      -1.49411871       0.00000000
Si      -1.42881219       1.35835794       1.28069802       0.00000000
Si      -2.07876690       0.51790797      -2.55970141       0.00000000
Si      -0.48003372       2.35543626      -2.41992410       0.00000000
Si       0.50634207      -2.33531811      -2.60659200       0.00000000
Si       2.27646301      -0.70841952      -2.82442856       0.00000000
Si       2.63110608      -0.00622278       2.63963074       0.00000000
Si       2.68014224       2.64961737      -0.14778621       0.00000000
