10
Lattice="16.28999089631971 0.0 0.0 0.0 16.28999089631971 0.0 0.0 0.0 34.40246978574605" Properties=species:S:1:pos:R:3:initial_magmoms:R:1 pbc="T T T"
Si      -1.12734945       1.09050147       1.71252150       0.00000000
Si       2.19730923       0.66213963      -0.48194447       0.00000000
Si       0.50699367      -2.26067733       0.50974168       0.00000000
Si      -1.31522202       0.74021760      -1.89678123       0.00000000
Si      -0.74303577      -2.95046109      -1.42020355       0.00000000
Si      -1.66042341      -1.35329175      -2.93463552       0.00000000
Si       2.13913764       2.99037159      -0.80577510       0.00000000
Si      -3.09892815       1.99510146      -0.88290548       0.00000000
Si      -3.43165140       1.08087408       1.23164351       0.00000000
Si      -0.60861069       3.36896748       1.70075585       0.00000000
