10
Lattice="16.28999089631971 0.0 0.0 0.0 16.28999089631971 0.0 0.0 0.0 34.40246978574605" Properties=species:S:1:pos:R:3:initial_magmoms:R:1 pbc="T T T"
Si      -1.35149985       1.34965908       1.36016433       0.00000000
Si       1.37661335      -1.39238775       1.34553639       0.00000000
Si      -1.68738336      -0.92317059      -1.41319718       0.00000000
Si       1.00431108       1.69871698      -1.34707560       0.00000000
Si       1.84567559       0.16589736      -2.96416459       0.00000000
Si      -2.61752607      -2.54549169       0.06215498       0.00000000
Si      -2.62392804       2.69543204      -0.13167553       0.00000000
Si       0.00948078       2.70018220       2.71398140       0.00000000
Si      -2.70433548      -0.00809613       2.71728403       0.00000000
Si       2.72584384      -0.01042560       2.71226127       0.00000000
