10
Lattice="16.28999089631971 0.0 0.0 0.0 16.28999089631971 0.0 0.0 0.0 34.40246978574605" Properties=species:S:1:pos:R:3:initial_magmoms:R:1 pbc="T T T"
Si       1.35724473       1.35734365      -1.35652454       0.00000000
Si      -1.35707103      -1.35796698      -1.35710939       0.00000000
Si      -1.35822762       1.35752107       1.35741901       0.00000000
Si       1.35829475      -1.35760860       1.35759102       0.00000000
Si      -0.00177561      -2.71502172      -2.71242984       0.00000000
Si      -2.71438641      -0.00201996       2.71315230       0.00000000
Si      -2.71384884       2.71426328       0.00068805       0.00000000
Si      -2.71446786      -2.71494027       0.00048163       0.00000000
Si      -2.71538010       0.00417024      -2.71466601       0.00000000
Si      -0.00156384       2.71244857      -2.71796864       0.00000000
