10
Lattice="16.28999089631971 0.0 0.0 0.0 16.28999089631971 0.0 0.0 0.0 34.40246978574605" Properties=species:S:1:pos:R:3:initial_magmoms:R:1 pbc="T T T"
Si       1.34853507      -1.34884458       1.35796945       0.00000000
Si      -1.35711990      -1.35493704      -1.35600851       0.00000000
Si       1.35615879       1.35954103      -1.35573329       0.00000000
Si      -1.35713619       1.35989672       1.35817586       0.00000000
Si       0.01115865       2.69713108       2.72491795       0.00000000
Si      -0.00008145      -2.71292031      -2.71267066       0.00000000
Si       2.71438641       0.00201996      -2.71315230       0.00000000
Si      -2.71471221       0.00200367      -2.71304909       0.00000000
Si       2.71648782      -2.71220355       0.00460993       0.00000000
Si       0.00053757       2.71628324      -2.71246425       0.00000000
