10
Lattice="16.28999089631971 0.0 0.0 0.0 16.28999089631971 0.0 0.0 0.0 34.40246978574605" Properties=species:S:1:pos:R:3:initial_magmoms:R:1 pbc="T T T"
Si       2.25972992      -0.40588164      -0.37921864       0.00000000
Si      -0.58077108      -1.85362281       1.31458791       0.00000000
Si      -0.30305916       2.08801962       1.10105166       0.00000000
Si      -1.19767338       0.44733969      -2.00762605       0.00000000
Si       3.23412605       0.07558560       1.75782958       0.00000000
Si       3.03069653       1.32722775      -1.77926233       0.00000000
Si      -3.42977805      -0.25858746      -1.53349095       0.00000000
Si      -2.92798089      -1.69510482       1.67553882       0.00000000
Si      -1.99215297       3.26233055      -0.07241724       0.00000000
Si      -0.04137660      -3.85568010       0.19736708       0.00000000
