10
Lattice="16.28999089631971 0.0 0.0 0.0 16.28999089631971 0.0 0.0 0.0 34.40246978574605" Properties=species:S:1:pos:R:3:initial_magmoms:R:1 pbc="T T T"
Si       0.41948379      -0.67561146      -2.22670110       0.00000000
Si      -2.26221804      -0.63392535       0.37354223       0.00000000
Si       1.64761947      -1.43151633       1.00365821       0.00000000
Si       0.14972139       2.37522861       0.67174300       0.00000000
Si       2.23029648       0.72273843      -2.71858789       0.00000000
Si      -3.17631284       0.95558769       1.81390564       0.00000000
Si       0.51756588      -2.31609591       2.94468105       0.00000000
Si       1.60759494       2.24657019       2.59721591       0.00000000
Si      -3.46546034      -0.20470014      -1.66002330       0.00000000
Si       0.76300731      -3.04996041      -2.23519852       0.00000000
