10
Lattice="16.28999089631971 0.0 0.0 0.0 16.28999089631971 0.0 0.0 0.0 34.40246978574605" Properties=species:S:1:pos:R:3:initial_magmoms:R:1 pbc="T T T"
Si      -0.91409480       1.58951304       1.44036341       0.00000000
Si       2.26221804       0.63392535      -0.37354223       0.00000000
Si      -0.77484788      -2.05408755       0.93612613       0.00000000
Si      -1.20324230       0.42922521      -2.03356553       0.00000000
Si      -3.03643745      -1.97418510       0.01334817       0.00000000
Si      -0.77984891       0.63894267       3.54782548       0.00000000
Si       2.68170183      -0.04168611      -2.60024333       0.00000000
Si       0.27472727       3.61286136       1.07755476       0.00000000
Si       2.41193943       3.00915396       0.29820077       0.00000000
Si      -3.42961289      -0.35805420      -1.76013455       0.00000000
