10
Lattice="16.28999089631971 0.0 0.0 0.0 16.28999089631971 0.0 0.0 0.0 34.40246978574605" Properties=species:S:1:pos:R:3:initial_magmoms:R:1 pbc="T T T"
Si       2.11923126      -0.37682028      -0.92243394       0.00000000
Si      -1.00230741      -1.20213684       1.77066171       0.00000000
Si      -1.45787355       0.12865842      -1.92547291       0.00000000
Si       0.81098136       1.54839708       1.67457556       0.00000000
Si      -0.76178556       3.15652959       1.07951570       0.00000000
Si      -2.84087174       1.96571430       0.74237131       0.00000000
Si      -2.62015202       0.44383734       2.57925781       0.00000000
Si       3.61712934      -0.49691016       0.86628908       0.00000000
Si       0.82575639      -2.33453619       2.84470741       0.00000000
Si       2.17891782      -2.59721244      -1.68967825       0.00000000
