10
Lattice="16.28999089631971 0.0 0.0 0.0 16.28999089631971 0.0 0.0 0.0 34.40246978574605" Properties=species:S:1:pos:R:3:initial_magmoms:R:1 pbc="T T T"
Si      -1.32810089       1.30450320      -1.42386054       0.00000000
Si       1.34403903       1.36332639       1.36486371       0.00000000
Si      -1.37713705      -1.35133695       1.36355641       0.00000000
Si       1.42135137      -1.26185598      -1.42848423       0.00000000
Si       2.70084942       2.70772380      -0.00907194       0.00000000
Si      -2.63159607      -0.18956673      -2.77019304       0.00000000
Si       2.70453096      -2.70686043      -0.01701547       0.00000000
Si       2.69798238       0.00601101       2.72066580       0.00000000
Si      -2.72313072       2.69809641      -0.00843205       0.00000000
Si      -2.70387284      -2.72253141       0.01929636       0.00000000
