10
Lattice="16.28999089631971 0.0 0.0 0.0 16.28999089631971 0.0 0.0 0.0 34.40246978574605" Properties=species:S:1:pos:R:3:initial_magmoms:R:1 pbc="T T T"
Si       1.35601998       1.35707103       1.35686857       0.00000000
Si       1.35636044      -1.35767376      -1.35662775       0.00000000
Si      -1.35765848       1.35705474      -1.35676536       0.00000000
Si      -1.35534530      -1.35769005       1.35927674       0.00000000
Si       0.00737135       2.70611109       2.71380594       0.00000000
Si       2.71095539       0.00083079       2.71531965       0.00000000
Si       2.71362695       2.71362078       0.00058484       0.00000000
Si      -2.71386614       0.00226431      -2.71394355       0.00000000
Si       0.00059201      -2.71549413      -2.71353072       0.00000000
Si       2.71440887       0.00060273      -2.71466601       0.00000000
