10
Lattice="16.28999089631971 0.0 0.0 0.0 16.28999089631971 0.0 0.0 0.0 34.40246978574605" Properties=species:S:1:pos:R:3:initial_magmoms:R:1 pbc="T T T"
Si      -0.73447863       2.24360541      -0.64284491       0.00000000
Si       2.04376946       1.35399222       0.69437984       0.00000000
Si       1.93908992      -2.01033261      -0.45593619       0.00000000
Si       0.71859425       0.48443202       2.71205142       0.00000000
Si      -2.79420482      -0.09723501       0.68718972       0.00000000
Si      -1.34273324      -0.90137457       2.39805990       0.00000000
Si       0.96525743       1.08022248      -2.79730078       0.00000000
Si      -2.58233708      -0.99367371      -1.87228666       0.00000000
Si      -0.41868558      -3.54701718       0.05920668       0.00000000
Si      -2.85237641       2.23099695       0.36335909       0.00000000
