10
Lattice="16.28999089631971 0.0 0.0 0.0 16.28999089631971 0.0 0.0 0.0 34.40246978574605" Properties=species:S:1:pos:R:3:initial_magmoms:R:1 pbc="T T T"
Si      -1.34871426       1.37457368       1.37756855       0.00000000
Si       1.36777356      -1.37264427       1.38231265       0.00000000
Si      -1.74500109      -1.05749793      -1.37289122       0.00000000
Si       1.99961379       0.88446555      -1.25860130       0.00000000
Si      -0.44903385      -2.41399881      -2.76842819       0.00000000
Si       2.76599313      -2.66146020      -0.10268111       0.00000000
Si      -2.66117675      -2.77586487      -0.03247595       0.00000000
Si      -2.70697609      -0.00030951       2.74967742       0.00000000
Si      -2.63466315       2.82105400      -0.12702087       0.00000000
Si       0.00935046       2.71180186       2.75538823       0.00000000
