10
Lattice="16.28999089631971 0.0 0.0 0.0 16.28999089631971 0.0 0.0 0.0 34.40246978574605" Properties=species:S:1:pos:R:3:initial_magmoms:R:1 pbc="T T T"
Si       1.35860229      -1.35620766      -1.35569888       0.00000000
Si       1.35684297       1.35821133       1.35759102       0.00000000
Si      -1.35857134      -1.35700587       1.35776303       0.00000000
Si      -1.35933697       1.36052451      -1.36226976       0.00000000
Si       2.71254564      -2.71352304       0.00010321       0.00000000
Si      -2.71480085      -2.71217097       0.00048163       0.00000000
Si       2.71440270       0.00149868       2.71487242       0.00000000
Si      -0.00154755      -2.71508688       2.71487242       0.00000000
Si      -2.71584144       0.00107514       2.71501003       0.00000000
Si       2.71363707       2.71751675       0.00072245       0.00000000
