10
Lattice="10.86 0.0 0.0 0.0 10.86 0.0 0.0 0.0 10.86" Properties=species:S:1:pos:R:3:initial_magmoms:R:1 pbc="T T T"
Si      -1.33215276       1.18324044       1.28203386       0.00000000
Si      -1.47851298      -1.45962744      -1.21962144       0.00000000
Si       1.40814018      -1.38458484       1.68061758       0.00000000
Si       0.30405828       2.22715794      -2.50989804       0.00000000
Si      -2.66104752      -0.03607692      -2.48018508       0.00000000
Si       0.05395248      -2.75107692      -2.48018508       0.00000000
Si      -2.66104752       2.67892308       0.23481492       0.00000000
Si      -2.66104752      -2.75107692       0.23481492       0.00000000
Si       2.76895248      -2.75107692       0.23481492       0.00000000
Si      -2.66104752      -0.03607692       2.94981492       0.00000000
