10
Lattice="10.86 0.0 0.0 0.0 10.86 0.0 0.0 0.0 10.86" Properties=species:S:1:pos:R:3:initial_magmoms:R:1 pbc="T T T"
Si       1.35750000       1.35750000       1.35750000       0.00000000
Si       1.35750000      -1.35750000      -1.35750000       0.00000000
Si      -1.35750000      -1.35750000       1.35750000       0.00000000
Si      -1.35750000       1.35750000      -1.35750000       0.00000000
Si      -0.12483570       2.50541286       2.78487324       0.00000000
Si      -2.74447404      -0.22081638       2.55129636       0.00000000
Si      -0.00331230      -2.70600792      -2.62669734       0.00000000
Si      -0.11165166      -2.68861020       2.68990254       0.00000000
Si       2.71735662      -0.04418934      -2.69709186       0.00000000
Si       2.71500000       2.71500000       0.00000000       0.00000000
