10
Lattice="16.28999089631971 0.0 0.0 0.0 16.28999089631971 0.0 0.0 0.0 34.51877397758722" Properties=species:S:1:pos:R:3:initial_magmoms:R:1 pbc="T T T"
Si      -1.34213051      -1.35197122      -1.38372035       0.00000000
Si       1.37322419       1.36508897      -1.38344420       0.00000000
Si       1.42461914      -1.33195820       1.44088347       0.00000000
Si      -1.49568005       1.30836719       1.42973390       0.00000000
Si       2.47305983       0.21086590       2.89246776       0.00000000
Si      -2.70146585      -2.71468356       0.00793932       0.00000000
Si      -2.70719993       2.72049842      -0.02851252       0.00000000
Si       2.73443288      -2.69801889      -0.02105646       0.00000000
Si       2.73021377       2.71657253      -0.00500523       0.00000000
Si      -2.70338807       0.00679782      -2.74545222       0.00000000
