10
Lattice="16.28999089631971 0.0 0.0 0.0 16.28999089631971 0.0 0.0 0.0 34.51877397758722" Properties=species:S:1:pos:R:3:initial_magmoms:R:1 pbc="T T T"
Si      -2.14745206       0.77230890      -0.43314182       0.00000000
Si      -0.02554272      -0.09966222       2.33112315       0.00000000
Si       1.62860904       1.66248965      -0.30100388       0.00000000
Si       0.03495834      -1.99980927      -1.34485219       0.00000000
Si       3.09109266       0.29217744      -1.52138129       0.00000000
Si      -3.45793436      -1.16466984      -0.01556798       0.00000000
Si      -2.34334093       2.65814423       0.95378878       0.00000000
Si      -1.26620867      -2.02678551       2.88432133       0.00000000
Si      -2.17080051      -2.84252355      -1.13577185       0.00000000
Si      -1.39044761       1.94913338       2.99868209       0.00000000
