10
Lattice="16.28999089631971 0.0 0.0 0.0 16.28999089631971 0.0 0.0 0.0 34.51877397758722" Properties=species:S:1:pos:R:3:initial_magmoms:R:1 pbc="T T T"
Si       1.52743185      -1.10505984      -1.46673804       0.00000000
Si       1.60011783       1.44068760       1.14115679       0.00000000
Si      -1.33550796       1.60546095      -1.52010410       0.00000000
Si      -0.15149700      -1.89468013       2.16153232       0.00000000
Si       3.34427184      -1.82038632       0.01819140       0.00000000
Si      -2.44130804      -0.00755856      -2.92947191       0.00000000
Si      -3.01782743       2.03840028       1.46370039       0.00000000
Si       1.06135866       1.47108474       3.50597028       0.00000000
Si       0.47899116      -2.64788395      -2.91832234       0.00000000
Si       0.22455765       2.63036259      -3.00168523       0.00000000
