10
Lattice="16.28999089631971 0.0 0.0 0.0 16.28999089631971 0.0 0.0 0.0 34.51877397758722" Properties=species:S:1:pos:R:3:initial_magmoms:R:1 pbc="T T T"
Si       1.35640314      -1.35656345       1.35562205       0.00000000
Si      -1.35733167      -1.35709660      -1.35634694       0.00000000
Si       1.35690813       1.35835142      -1.35627791       0.00000000
Si      -1.35508365       1.35879125       1.36328522       0.00000000
Si       2.70275535       0.00081939       2.70333929       0.00000000
Si      -0.00053757      -2.71366706      -2.71369493       0.00000000
Si       2.71479366      -2.71273853      -0.00124268       0.00000000
Si       2.71422351       0.00104745      -2.71348782       0.00000000
Si      -2.71559676       0.00124456      -2.71393656       0.00000000
Si      -2.71543060      -2.71425350       0.00020711       0.00000000
