10
Lattice="16.28999089631971 0.0 0.0 0.0 16.28999089631971 0.0 0.0 0.0 34.51877397758722" Properties=species:S:1:pos:R:3:initial_magmoms:R:1 pbc="T T T"
Si      -0.61814034      -2.31785034      -0.75765299       0.00000000
Si       0.91305450       0.31223043      -2.32328738       0.00000000
Si      -2.36229435       0.94322358       0.36531239       0.00000000
Si       0.90137457       0.74600055       2.45404457       0.00000000
Si      -2.43498033      -1.60252386      -2.24258244       0.00000000
Si      -0.81772542      -0.53299251      -3.71004538       0.00000000
Si      -0.90735300       2.06544168       3.15681268       0.00000000
Si      -2.17611594       3.21147576      -0.40069415       0.00000000
Si      -0.77906925      -3.65672123       1.20263476       0.00000000
Si       2.85754293      -1.36148562      -2.38469631       0.00000000
