10
Lattice="16.28999089631971 0.0 0.0 0.0 16.28999089631971 0.0 0.0 0.0 34.51877397758722" Properties=species:S:1:pos:R:3:initial_magmoms:R:1 pbc="T T T"
Si       0.23944671      -0.96070275      -2.12035140       0.00000000
Si      -1.90785222       1.21283937       0.76852641       0.00000000
Si       1.24747191       2.05706862       0.10642144       0.00000000
Si       0.58145526      -2.04728810       1.16556157       0.00000000
Si       1.44259353       1.97236062       2.43181447       0.00000000
Si       0.23429907       1.02021012      -3.43472349       0.00000000
Si      -0.90218907       2.26261584       2.67027029       0.00000000
Si      -1.98907416       3.14673930      -0.58205589       0.00000000
Si       2.22822765      -2.29593866      -2.01355025       0.00000000
Si      -1.29666771      -3.46265846       1.01281591       0.00000000
