10
Lattice="16.28999089631971 0.0 0.0 0.0 16.28999089631971 0.0 0.0 0.0 34.51877397758722" Properties=species:S:1:pos:R:3:initial_magmoms:R:1 pbc="T T T"
Si      -0.28854477      -0.38936684      -2.28704265       0.00000000
Si       1.68717159       1.61211379      -0.29655095       0.00000000
Si       0.65220273      -2.05329001       0.96152099       0.00000000
Si      -2.27238984       0.43732786       0.59900462       0.00000000
Si       3.03477813       0.45474187      -1.98862768       0.00000000
Si      -2.16666774      -1.80473719      -2.43978831       0.00000000
Si       1.73643255      -1.19094952      -3.15836603       0.00000000
Si      -2.54233143      -0.39563360       2.80375446       0.00000000
Si       0.57259350       3.63028189      -1.02078975       0.00000000
Si       0.66953529      -1.84293724       3.28895062       0.00000000
