10
Lattice="16.28999089631971 0.0 0.0 0.0 16.28999089631971 0.0 0.0 0.0 34.51877397758722" Properties=species:S:1:pos:R:3:initial_magmoms:R:1 pbc="T T T"
Si      -0.46876104       2.29666194       0.35191910       0.00000000
Si      -0.26994159      -0.83296146       2.20474984       0.00000000
Si       2.27238984      -0.43732786      -0.59900462       0.00000000
Si      -1.35676152      -0.87175283      -1.81841551       0.00000000
Si       1.98384507      -0.82669469      -2.88604727       0.00000000
Si      -0.82678266      -3.06557342       1.72514573       0.00000000
Si       0.09153351       2.50872516       2.61566156       0.00000000
Si      -1.48162437       0.86496642       3.31287215       0.00000000
Si       0.10572210      -2.24206505      -3.03879293       0.00000000
Si       0.50020074       3.48320925      -1.38133855       0.00000000
