10
Lattice="16.28999089631971 0.0 0.0 0.0 16.28999089631971 0.0 0.0 0.0 34.51877397758722" Properties=species:S:1:pos:R:3:initial_magmoms:R:1 pbc="T T T"
Si       1.35562122       1.16260590       1.53372318       0.00000000
Si       1.74578301      -0.43453479      -1.54364592       0.00000000
Si      -1.61091810       1.10359700      -1.44809790       0.00000000
Si      -1.31955516      -1.50936528       1.43146816       0.00000000
Si      -2.56427406      -1.11032544      -1.70698885       0.00000000
Si       2.97927810       2.11093150       0.12195490       0.00000000
Si      -0.13216077       2.40573163       2.87801962       0.00000000
Si      -3.02256063       2.41648303       0.02961712       0.00000000
Si       2.58484833      -0.33943750       2.88476804       0.00000000
Si      -2.30164668      -3.16982127       0.06026981       0.00000000
