10
Lattice="16.28999089631971 0.0 0.0 0.0 16.28999089631971 0.0 0.0 0.0 34.51877397758722" Properties=species:S:1:pos:R:3:initial_magmoms:R:1 pbc="T T T"
Si      -0.94234392      -1.87639623       1.21723621       0.00000000
Si       1.10504844       1.60060653       1.45897132       0.00000000
Si       1.39650912      -1.26715023      -1.59535507       0.00000000
Si      -1.30420998       1.41077916      -1.60802347       0.00000000
Si       2.70286938      -2.67129936      -0.19420273       0.00000000
Si      -2.67312384      -2.72161917      -0.16952179       0.00000000
Si      -2.62446561       2.80153791      -0.28433130       0.00000000
Si       2.61811251       2.82279636       0.02012446       0.00000000
Si       1.00214451      -3.55011228       1.15582727       0.00000000
Si       0.03332934      -2.63379978      -2.97921349       0.00000000
