10
Lattice="16.28999089631971 0.0 0.0 0.0 16.28999089631971 0.0 0.0 0.0 34.51877397758722" Properties=species:S:1:pos:R:3:initial_magmoms:R:1 pbc="T T T"
Si      -1.11777093       1.61127648      -1.34751013       0.00000000
Si       1.23202899       1.51081605       1.40251380       0.00000000
Si      -1.52870247      -1.20580209       1.41652843       0.00000000
Si       2.01660426      -0.98274312      -1.12051455       0.00000000
Si      -0.08816148       1.06621308      -3.53945351       0.00000000
Si       3.52896786       1.04492205      -1.13967248       0.00000000
Si      -2.78616015       2.67367770       0.19499666       0.00000000
Si      -0.14613759      -2.53021167       2.95247665       0.00000000
Si       2.56072284       0.18497295       2.96153784       0.00000000
Si      -3.03653745      -2.51946027       0.10407416       0.00000000
