10
Lattice="16.28999089631971 0.0 0.0 0.0 16.28999089631971 0.0 0.0 0.0 34.51877397758722" Properties=species:S:1:pos:R:3:initial_magmoms:R:1 pbc="T T T"
Si      -1.35506736       1.35884664       1.36224966       0.00000000
Si       1.35891180      -1.35643572       1.36259485       0.00000000
Si      -1.35418770      -1.35092970      -1.39345119       0.00000000
Si       1.35971001       1.35863487      -1.39644052       0.00000000
Si      -2.71440270      -2.71215468       0.00075941       0.00000000
Si       2.71526607       2.71342530       0.00082845       0.00000000
Si      -2.71454931       2.71523349       0.00000000       0.00000000
Si       2.71691136      -2.71420722       0.00590271       0.00000000
Si       0.00066789      -2.71415835       2.71994283       0.00000000
Si      -2.71433754       0.00128691       2.71983928       0.00000000
