10
Lattice="16.28999089631971 0.0 0.0 0.0 16.28999089631971 0.0 0.0 0.0 34.51877397758722" Properties=species:S:1:pos:R:3:initial_magmoms:R:1 pbc="T T T"
Si      -1.35703845      -1.35790182      -1.35752058       0.00000000
Si       1.35816246       1.35726651      -1.35790029       0.00000000
Si       1.35873261      -1.35830907       1.35976430       0.00000000
Si      -1.36045935       1.35917244       1.36066179       0.00000000
Si      -2.71406061      -2.71362078      -0.00093201       0.00000000
Si      -2.71415835       2.71578735       0.00003452       0.00000000
Si      -2.71474479       0.00011403      -2.71535183       0.00000000
Si       2.71505430       2.71508688       0.00037971       0.00000000
Si       0.00024435       2.71487511      -2.71531732       0.00000000
Si       0.00026064      -2.71533123      -2.71524828       0.00000000
