10
Lattice="16.28999089631971 0.0 0.0 0.0 16.28999089631971 0.0 0.0 0.0 34.51877397758722" Properties=species:S:1:pos:R:3:initial_magmoms:R:1 pbc="T T T"
Si       2.14578396       0.71931753      -0.49365326       0.00000000
Si      -0.13833468      -0.51666993       2.28435018       0.00000000
Si      -1.80204867       1.48234113      -0.40670042       0.00000000
Si      -0.65340819      -2.12087655      -0.87346354       0.00000000
Si      -2.31629139      -1.41672501       1.78531199       0.00000000
Si      -3.59313254      -0.00905724       0.18657408       0.00000000
Si       2.22534432       2.78384697       0.70283715       0.00000000
Si      -1.66285062       2.07528084      -2.73150663       0.00000000
Si       2.27229210       1.35760860      -2.77921160       0.00000000
Si      -1.66166145      -3.43041336       0.81336633       0.00000000
