10
Lattice="16.28999089631971 0.0 0.0 0.0 16.28999089631971 0.0 0.0 0.0 34.51877397758722" Properties=species:S:1:pos:R:3:initial_magmoms:R:1 pbc="T T T"
Si      -1.55983266      -0.99087183       1.41727261       0.00000000
Si      -1.46342844       1.23171948      -1.38945047       0.00000000
Si       1.24753707      -1.47846411      -1.39421406       0.00000000
Si       1.19288412       1.68375069       1.40774543       0.00000000
Si      -3.09446469       0.91800666       1.89739451       0.00000000
Si      -0.11315034       2.57947263      -2.75950137       0.00000000
Si       2.59802694      -0.13338252      -2.75698150       0.00000000
Si      -2.77324218       2.59778017       0.07248947       0.00000000
Si       2.64712500       2.73259735      -0.05650726       0.00000000
Si       2.64684807      -2.78589951      -0.06824365       0.00000000
