10
Lattice="16.28999089631971 0.0 0.0 0.0 16.28999089631971 0.0 0.0 0.0 34.51877397758722" Properties=species:S:1:pos:R:3:initial_magmoms:R:1 pbc="T T T"
Si       1.15297362       0.26902935       2.03792052       0.00000000
Si      -0.40119012      -2.32593507      -0.08294866       0.00000000
Si      -1.94592195       1.38924378       0.15381574       0.00000000
Si       1.09084356      -0.07907166      -2.22963789       0.00000000
Si      -0.44813790      -0.89969670       3.39910009       0.00000000
Si      -0.68414742       0.98658756      -3.40772979       0.00000000
Si       3.02298417      -1.11229749       1.73173882       0.00000000
Si      -1.78499304       2.72811466      -1.80647201       0.00000000
Si      -0.52769826      -2.96422614       2.20260968       0.00000000
Si      -2.48754816      -2.51713080      -1.31123088       0.00000000
