10
Lattice="16.28999089631971 0.0 0.0 0.0 16.28999089631971 0.0 0.0 0.0 34.51877397758722" Properties=species:S:1:pos:R:3:initial_magmoms:R:1 pbc="T T T"
Si      -2.13183972      -0.64510029      -0.79797094       0.00000000
Si       0.16092891       1.33887088      -1.96028775       0.00000000
Si      -0.23762223       1.09246183       2.11085873       0.00000000
Si       1.94592195      -1.38924378      -0.15381574       0.00000000
Si      -3.33483993       1.26457708       0.18305316       0.00000000
Si      -0.44211060      -0.77882490       3.53807275       0.00000000
Si       3.09889557      -1.12021443       1.88410477       0.00000000
Si       1.26177453      -0.40265622      -3.56154553       0.00000000
Si      -2.39041089      -2.99750661      -0.18905943       0.00000000
Si      -2.31220260       2.31945884       2.10309200       0.00000000
