10
Lattice="16.28999089631971 0.0 0.0 0.0 16.28999089631971 0.0 0.0 0.0 34.51877397758722" Properties=species:S:1:pos:R:3:initial_magmoms:R:1 pbc="T T T"
Si       0.55684107       2.23261196       0.47960411       0.00000000
Si      -0.80725095      -0.95680944       2.01872807       0.00000000
Si      -2.18413062       0.43166871      -0.91143422       0.00000000
Si       1.90886220      -0.92501136      -1.44312719       0.00000000
Si       0.82678266       3.06557342      -1.72514573       0.00000000
Si      -3.42479657      -1.49545458      -0.35823604       0.00000000
Si       0.90310131      -2.28317382       2.89781818       0.00000000
Si      -2.15858790       0.53133093      -3.24255736       0.00000000
Si       3.76870779       0.78530832       0.96480027       0.00000000
Si      -3.13071320      -1.51355277       1.94927626       0.00000000
