10
Lattice="16.28999089631971 0.0 0.0 0.0 16.28999089631971 0.0 0.0 0.0 34.51877397758722" Properties=species:S:1:pos:R:3:initial_magmoms:R:1 pbc="T T T"
Si      -1.35681039      -1.35647319       1.35890133       0.00000000
Si       1.35801585       1.35819504       1.35879778       0.00000000
Si      -1.36006839       1.36177884      -1.35803836       0.00000000
Si       1.36360332      -1.35872609      -1.35935008       0.00000000
Si      -2.71318095      -2.71507525       0.00217468       0.00000000
Si       0.00065160      -2.71360413       2.71555895       0.00000000
Si       2.71580364      -2.71370942       0.00162238       0.00000000
Si       2.72378574       0.00099369      -2.70591440       0.00000000
Si       2.71533123       2.71440270       0.00234728       0.00000000
Si      -2.71386513       2.71601541       0.00179498       0.00000000
