10
Lattice="16.28999089631971 0.0 0.0 0.0 16.28999089631971 0.0 0.0 0.0 34.51877397758722" Properties=species:S:1:pos:R:3:initial_magmoms:R:1 pbc="T T T"
Si      -1.33719723      -1.35117402      -1.36459694       0.00000000
Si       1.26754119      -1.36280741       1.43187406       0.00000000
Si       1.37657016       1.36579107      -1.36176639       0.00000000
Si      -1.38758220       1.32902454       1.42427993       0.00000000
Si       2.06361720       0.45040710       2.74041248       0.00000000
Si       0.37936152       2.28770733       2.70558302       0.00000000
Si      -2.70190827      -2.70155219       0.00693828       0.00000000
Si      -2.69695611       0.00348443      -2.72097840       0.00000000
Si      -2.69394246       2.73317367       0.02312759       0.00000000
Si       0.01751175      -2.71008815      -2.72260078       0.00000000
