10
Lattice="16.28999089631971 0.0 0.0 0.0 16.28999089631971 0.0 0.0 0.0 34.51877397758722" Properties=species:S:1:pos:R:3:initial_magmoms:R:1 pbc="T T T"
Si      -1.35694071      -1.35496275      -1.35862518       0.00000000
Si       1.35975888      -1.35465845       1.35638146       0.00000000
Si       1.35808101       1.35953734      -1.35848711       0.00000000
Si      -1.36016613       1.36303969       1.36024757       0.00000000
Si       2.69695611      -0.00348443       2.72097840       0.00000000
Si      -2.71383255      -2.71161778      -0.00303765       0.00000000
Si      -2.72587086       0.00194014       2.70154432       0.00000000
Si       2.71446786      -2.71357258      -0.00162238       0.00000000
Si       0.00078192      -2.71275808      -2.71545539       0.00000000
Si      -2.71440270       0.00216820      -2.71528280       0.00000000
