10
Lattice="16.28999089631971 0.0 0.0 0.0 16.28999089631971 0.0 0.0 0.0 34.51877397758722" Properties=species:S:1:pos:R:3:initial_magmoms:R:1 pbc="T T T"
Si      -1.36570473      -1.36109955       1.34129675       0.00000000
Si      -1.35410625       1.35350352      -1.36111054       0.00000000
Si       1.36016613      -1.36303969      -1.36024757       0.00000000
Si       1.36317978       1.36664955       1.38385842       0.00000000
Si       0.04821840      -2.56535767       2.69657361       0.00000000
Si      -2.71319724       2.71451673       0.00107008       0.00000000
Si       2.71669959       2.71116099       0.00072489       0.00000000
Si       0.00325800       2.71169856      -2.71807882       0.00000000
Si      -2.71155195      -0.00356751      -2.71832045       0.00000000
Si      -2.71205694      -2.71848239      -0.00642050       0.00000000
