10
Lattice="16.28999089631971 0.0 0.0 0.0 16.28999089631971 0.0 0.0 0.0 34.51877397758722" Properties=species:S:1:pos:R:3:initial_magmoms:R:1 pbc="T T T"
Si       2.26041669       0.42129198       0.25039933       0.00000000
Si      -0.91434141       2.13526062      -0.27335432       0.00000000
Si      -0.44926191      -1.47714462       1.77592288       0.00000000
Si      -0.12339675      -1.28883222      -2.04109625       0.00000000
Si       2.87461485      -1.82889622       0.03130855       0.00000000
Si      -0.30424833       2.42944173      -2.51514283       0.00000000
Si       1.79691732      -2.26512287       2.13264009       0.00000000
Si      -3.10656816       1.78310340       0.41836777       0.00000000
Si       0.61002792       0.47998485      -3.53790016       0.00000000
Si      -1.74760749      -3.12283601       0.60618453       0.00000000
