10
Lattice="16.28999089631971 0.0 0.0 0.0 16.28999089631971 0.0 0.0 0.0 34.51877397758722" Properties=species:S:1:pos:R:3:initial_magmoms:R:1 pbc="T T T"
Si      -1.68717159      -1.61211379       0.29655095       0.00000000
Si       1.34451144       0.81811638       1.77036535       0.00000000
Si      -1.11457809       2.01816810      -0.72423880       0.00000000
Si       1.34760654      -1.15737192      -1.69207673       0.00000000
Si      -1.97571636      -2.00148062      -1.99049170       0.00000000
Si       1.95188409       3.02759424       1.11961706       0.00000000
Si       1.79686845       0.31977270      -3.46799960       0.00000000
Si       0.26156853       3.89655171      -0.41671087       0.00000000
Si      -1.30969971       2.10287610      -3.04963183       0.00000000
Si       3.23540577      -0.61366059       2.15946119       0.00000000
