10
Lattice="16.28999089631971 0.0 0.0 0.0 16.28999089631971 0.0 0.0 0.0 34.51877397758722" Properties=species:S:1:pos:R:3:initial_magmoms:R:1 pbc="T T T"
Si      -0.95335596      -2.21392244      -0.25889095       0.00000000
Si      -1.41164253       1.31288603       1.47771502       0.00000000
Si       1.61091810      -1.10359700       1.44809790       0.00000000
Si       0.08992080       1.10807186      -2.24907198       0.00000000
Si       1.30160358      -0.58985601      -3.35719428       0.00000000
Si       3.35670111      -1.53813179      -0.09554802       0.00000000
Si       0.09619245       2.62654421       2.79016929       0.00000000
Si       0.29136294      -2.61296228       2.87956606       0.00000000
Si       3.29124789      -0.24413009      -2.10492149       0.00000000
Si      -2.62799728      -0.08956894       2.93684309       0.00000000
