10
Lattice="16.28999089631971 0.0 0.0 0.0 16.28999089631971 0.0 0.0 0.0 34.51877397758722" Properties=species:S:1:pos:R:3:initial_magmoms:R:1 pbc="T T T"
Si       1.37292120       1.32685308      -1.34849392       0.00000000
Si      -1.35799956       1.35777150       1.35669213       0.00000000
Si       1.35578412      -1.35894438       1.35803836       0.00000000
Si      -1.37209041      -1.34436483      -1.37141440       0.00000000
Si      -0.00856854      -2.75196744      -2.66168547       0.00000000
Si       2.71184517      -2.71326240       0.00072489       0.00000000
Si       0.10554291       2.63591748      -2.78527655       0.00000000
Si       2.71368594       0.00029322       2.71407464       0.00000000
Si      -0.00053757       2.71502172       2.71428175       0.00000000
Si      -0.00153126      -2.71515204       2.71448887       0.00000000
