10
Lattice="16.28999089631971 0.0 0.0 0.0 16.28999089631971 0.0 0.0 0.0 34.51877397758722" Properties=species:S:1:pos:R:3:initial_magmoms:R:1 pbc="T T T"
Si      -2.02689954      -1.12379823      -0.26351647       0.00000000
Si       1.71854613      -1.43177697      -0.70546058       0.00000000
Si       0.17707230       0.37005993       2.32352901       0.00000000
Si      -0.31887675      -2.78774028      -0.40780502       0.00000000
Si      -1.17398772      -1.52173035       2.89557445       0.00000000
Si      -2.93040810      -0.16169454      -2.24765670       0.00000000
Si      -0.00843822       2.77128738       2.61752557       0.00000000
Si      -0.42508755       2.82706434      -2.58052143       0.00000000
Si      -0.25971147      -3.47118723       1.87281713       0.00000000
Si       2.30692464      -0.30455784       3.31197466       0.00000000
