10
Lattice="16.28999089631971 0.0 0.0 0.0 16.28999089631971 0.0 0.0 0.0 34.51877397758722" Properties=species:S:1:pos:R:3:initial_magmoms:R:1 pbc="T T T"
Si      -2.19222675      -0.35215722       0.69172210       0.00000000
Si       0.91434141      -2.13526062       0.27335432       0.00000000
Si       0.61009308       0.29418111      -2.24178851       0.00000000
Si       0.20487933       2.06066871       1.19707723       0.00000000
Si      -1.54665405       0.39407139      -3.10941838       0.00000000
Si      -1.99710513      -0.43686522       3.01711513       0.00000000
Si       3.17475810      -1.71396864       0.52375365       0.00000000
Si      -0.62095851       1.44151839       3.32464305       0.00000000
Si      -3.30471972       1.72815723       0.18070588       0.00000000
Si       2.39839299       2.42059626       1.86808805       0.00000000
