10
Lattice="16.28999089631971 0.0 0.0 0.0 16.28999089631971 0.0 0.0 0.0 34.51877397758722" Properties=species:S:1:pos:R:3:initial_magmoms:R:1 pbc="T T T"
Si       1.48864210       1.20098025      -1.33959639       0.00000000
Si      -1.30110362       1.42055316       1.40569501       0.00000000
Si       1.41984943      -1.30647429       1.41289563       0.00000000
Si      -1.52540604      -1.17296145      -1.42126786       0.00000000
Si      -0.27305787       1.09200015      -3.05901201       0.00000000
Si       2.74609978      -2.67849954      -0.11806463       0.00000000
Si      -2.65528044       0.05589099       2.79452759       0.00000000
Si       0.06444324      -2.65971717       2.79625353       0.00000000
Si      -2.75065839      -2.70591561       0.11393273       0.00000000
Si      -2.60826750       2.87296956      -0.12878271       0.00000000
