10
Lattice="16.28999089631971 0.0 0.0 0.0 16.28999089631971 0.0 0.0 0.0 34.51877397758722" Properties=species:S:1:pos:R:3:initial_magmoms:R:1 pbc="T T T"
Si      -0.11104893       2.27714652      -0.60021278       0.00000000
Si       1.58309478      -1.42426728      -1.02966108       0.00000000
Si      -2.26160586      -0.65515122       0.23759285       0.00000000
Si       0.78143130      -0.04391784       2.23937219       0.00000000
Si      -0.49612824       1.74115665       3.13220078       0.00000000
Si       3.33560556      -1.47584142       0.50932479       0.00000000
Si      -0.77608818       3.34091610       1.37343375       0.00000000
Si      -2.29270347      -2.86265799       1.08571960       0.00000000
Si      -3.23294598      -0.89604774      -1.88876481       0.00000000
Si      -1.61986131       2.56569129      -2.37761996       0.00000000
