10
Lattice="16.28999089631971 0.0 0.0 0.0 16.28999089631971 0.0 0.0 0.0 34.51877397758722" Properties=species:S:1:pos:R:3:initial_magmoms:R:1 pbc="T T T"
Si       1.35588186       1.35705474       1.35696828       0.00000000
Si      -1.35780408       1.35786924      -1.35686473       0.00000000
Si       1.35773892      -1.35808101      -1.35700280       0.00000000
Si      -1.35808101      -1.35690813       1.35838355       0.00000000
Si       0.00003258      -2.71443528      -2.71407464       0.00000000
Si      -2.71450044       0.00309510      -2.71459242       0.00000000
Si      -0.00037467       2.71555929      -2.71397108       0.00000000
Si       2.71494027       0.00003258      -2.71473050       0.00000000
Si      -2.71497285      -2.71472850       0.00010356       0.00000000
Si       2.71466334       2.71504854       0.00020711       0.00000000
