10
Lattice="16.28999089631971 0.0 0.0 0.0 16.28999089631971 0.0 0.0 0.0 34.51877397758722" Properties=species:S:1:pos:R:3:initial_magmoms:R:1 pbc="T T T"
Si       1.50881238      -0.28854477       1.77740718       0.00000000
Si      -2.08205748      -1.14495894      -0.01114957       0.00000000
Si       1.46178315      -0.91802295      -1.66080270       0.00000000
Si      -0.36255024       2.36051550      -0.41470878       0.00000000
Si       3.24218241       0.61196643      -1.39431762       0.00000000
Si       3.36934215       0.86872941       0.95986408       0.00000000
Si      -2.91734352      -0.46206585      -2.14979593       0.00000000
Si      -1.31623200       0.70666020      -3.51097550       0.00000000
Si      -1.61308467      -3.46173903       0.48885515       0.00000000
Si       1.61986131      -2.56569129       2.37761996       0.00000000
