10
Lattice="16.28999089631971 0.0 0.0 0.0 16.28999089631971 0.0 0.0 0.0 34.51877397758722" Properties=species:S:1:pos:R:3:initial_magmoms:R:1 pbc="T T T"
Si      -0.90800460       0.24335631      -2.15635450       0.00000000
Si       1.78039926       1.52998938       0.26648508       0.00000000
Si      -1.46178315       0.91802295       1.66080270       0.00000000
Si       0.57146949      -2.33285832       0.06479177       0.00000000
Si       0.04702923       0.62947818       3.43820988       0.00000000
Si       0.72236376       1.76373459      -2.97438086       0.00000000
Si       1.90755900       1.78675236       2.62066678       0.00000000
Si      -2.77801515       1.62468315      -1.85017280       0.00000000
Si      -1.22787504      -2.09906424      -2.82539775       0.00000000
Si       3.63600945       0.57728502      -0.79589982       0.00000000
