10
Lattice="16.28999089631971 0.0 0.0 0.0 16.28999089631971 0.0 0.0 0.0 34.51877397758722" Properties=species:S:1:pos:R:3:initial_magmoms:R:1 pbc="T T T"
Si       0.01733256       0.21035277       2.32742964       0.00000000
Si      -0.65220273       2.05329001      -0.96152099       0.00000000
Si      -1.84251303      -1.49996691      -0.08049783       0.00000000
Si       2.29055319      -0.72295020       0.04587548       0.00000000
Si      -0.71061867      -3.53680335       0.38643789       0.00000000
Si      -0.94074750       1.66392317      -3.24856363       0.00000000
Si       2.17766349       0.88493733       2.96664865       0.00000000
Si      -2.40583752      -1.86059493      -2.34430933       0.00000000
Si      -2.92459257       2.49061787      -0.36251637       0.00000000
Si      -1.20488985       2.00338234       3.09450626       0.00000000
