10
Lattice="16.28999089631971 0.0 0.0 0.0 16.28999089631971 0.0 0.0 0.0 34.51877397758722" Properties=species:S:1:pos:R:3:initial_magmoms:R:1 pbc="T T T"
Si       1.35647970       1.35617508      -1.35762414       0.00000000
Si      -1.35857441      -1.35819504      -1.35734799       0.00000000
Si       1.35970512      -1.35858600       1.36211158       0.00000000
Si      -1.36320926       1.35954711       1.35796933       0.00000000
Si      -2.71759132       2.71067229      -0.00127720       0.00000000
Si      -0.00094482       2.71352304      -2.71507568       0.00000000
Si       2.71402314      -0.00112401      -2.71528280       0.00000000
Si       2.71480506       2.71524978      -0.00089749       0.00000000
Si      -2.71535959      -0.00149868      -2.71490309       0.00000000
Si      -0.00080798      -2.71613270      -2.71511020       0.00000000
