10
Lattice="16.28999089631971 0.0 0.0 0.0 16.28999089631971 0.0 0.0 0.0 34.51877397758722" Properties=species:S:1:pos:R:3:initial_magmoms:R:1 pbc="T T T"
Si      -1.35438206       1.35112518      -1.35924652       0.00000000
Si      -1.35750974      -1.36272366       1.35907393       0.00000000
Si       1.36320926      -1.35954711      -1.35796933       0.00000000
Si       1.35706142       1.36853919       1.37647140       0.00000000
Si       2.51987583      -0.13693374       2.74510703       0.00000000
Si      -2.70581675       2.71147050       0.00024163       0.00000000
Si      -2.70984038      -2.71573848       0.00186401       0.00000000
Si      -2.70980780      -0.00358380      -2.71586962       0.00000000
Si       0.00473108       2.71090035      -2.71524828       0.00000000
Si       2.71776675       2.71023246       0.00358995       0.00000000
