10
Lattice="16.28999089631971 0.0 0.0 0.0 16.28999089631971 0.0 0.0 0.0 34.51877397758722" Properties=species:S:1:pos:R:3:initial_magmoms:R:1 pbc="T T T"
Si       1.35542574       1.35470898       1.35662309       0.00000000
Si       1.35765747      -1.35746199      -1.35700280       0.00000000
Si      -1.35791811       1.35782037      -1.35727895       0.00000000
Si      -1.35752715      -1.35839052       1.35727895       0.00000000
Si       2.70980780       0.00358380       2.71586962       0.00000000
Si      -0.00135207      -2.71423980      -2.71424723       0.00000000
Si       2.71444265      -2.71415835       0.00055230       0.00000000
Si       2.71453888       2.71448415       0.00062134       0.00000000
Si      -2.71581993      -0.00141723      -2.71331523       0.00000000
Si      -0.00052128       2.71494027      -2.71455790       0.00000000
