10
Lattice="16.28999089631971 0.0 0.0 0.0 16.28999089631971 0.0 0.0 0.0 34.51877397758722" Properties=species:S:1:pos:R:3:initial_magmoms:R:1 pbc="T T T"
Si       1.35749457      -1.35376416       1.36045468       0.00000000
Si      -1.35795069      -1.35653346      -1.35724443       0.00000000
Si       1.35752715       1.35839052      -1.35727895       0.00000000
Si      -1.35949824       1.35812988       1.36221514       0.00000000
Si       2.71295289       2.71309950      -0.00065586       0.00000000
Si       2.70982521      -0.00074934       2.71766459       0.00000000
Si      -0.00058644      -2.71386676      -2.71414368       0.00000000
Si       2.71363707      -2.71444994       0.00072489       0.00000000
Si       2.71518462       0.00092853      -2.71428175       0.00000000
Si      -2.71560816       0.00076563      -2.71414368       0.00000000
