10
Lattice="16.28999089631971 0.0 0.0 0.0 16.28999089631971 0.0 0.0 0.0 34.51877397758722" Properties=species:S:1:pos:R:3:initial_magmoms:R:1 pbc="T T T"
Si      -0.17707230      -0.37005993      -2.32352901       0.00000000
Si      -1.35106002      -1.89179028       0.57204544       0.00000000
Si      -0.18551052       2.40122745       0.29399656       0.00000000
Si       2.12985234      -0.67461777       0.98844565       0.00000000
Si      -2.20397184      -1.49385816      -2.58704548       0.00000000
Si       1.54147383      -1.80183690      -3.02898959       0.00000000
Si      -0.43678377      -3.84124716      -0.45071188       0.00000000
Si       1.65003039       3.46068018      -0.73100449       0.00000000
Si       2.27097261       0.43774488       3.14825202       0.00000000
Si      -3.50780715      -1.79190000      -0.29558443       0.00000000
