10
Lattice="16.28999089631971 0.0 0.0 0.0 16.28999089631971 0.0 0.0 0.0 34.51877397758722" Properties=species:S:1:pos:R:3:initial_magmoms:R:1 pbc="T T T"
Si       1.35143469      -1.36034532      -1.35948815       0.00000000
Si      -1.36168110       1.35760860      -1.35938460       0.00000000
Si       1.34571690       1.34052039       1.39214293       0.00000000
Si      -1.37564163      -1.34047152       1.38876009       0.00000000
Si      -0.18599922       2.62410723       2.75473778       0.00000000
Si       2.70581675      -2.71147050      -0.00024163       0.00000000
Si       2.71054783      -0.00057015      -2.71548991       0.00000000
Si       2.71024890       2.71665072       0.00293410       0.00000000
Si      -0.00389331       2.71489140      -2.71586962       0.00000000
Si      -0.00399105      -2.71505430      -2.71611125       0.00000000
