10
Lattice="16.28999089631971 0.0 0.0 0.0 16.28999089631971 0.0 0.0 0.0 34.51877397758722" Properties=species:S:1:pos:R:3:initial_magmoms:R:1 pbc="T T T"
Si       0.89622693       1.87058070      -1.12058359       0.00000000
Si      -1.94359248      -0.71032545      -1.20953852       0.00000000
Si       1.97860851      -1.36591650       0.27739302       0.00000000
Si       1.34918734       2.04476967       1.37805926       0.00000000
Si      -0.41187636      -1.99391229      -2.57213336       0.00000000
Si       2.14692330       0.10692756       2.49784892       0.00000000
Si       2.33312940       0.72967797      -2.59053188       0.00000000
Si       1.04691564      -3.29162256      -1.00974374       0.00000000
Si      -3.61826964      -1.53774342       0.14370174       0.00000000
Si       3.78213794      -0.52494525      -1.09317566       0.00000000
