10
Lattice="16.28999089631971 0.0 0.0 0.0 16.28999089631971 0.0 0.0 0.0 34.51877397758722" Properties=species:S:1:pos:R:3:initial_magmoms:R:1 pbc="T T T"
Si      -0.97731855      -0.25878294       2.11634722       0.00000000
Si      -2.14702200       0.48029436      -0.82762259       0.00000000
Si       1.70510688       1.52425530      -0.56382997       0.00000000
Si       0.52256691      -2.31648687      -0.19144123       0.00000000
Si      -1.31116581      -2.51960688       1.34222876       0.00000000
Si      -1.93391622      -0.35300430      -3.04569669       0.00000000
Si       0.77519223      -0.31035708       3.65533309       0.00000000
Si       2.58217255       2.34320247       1.45786671       0.00000000
Si       0.91751796       3.39043770      -1.68831418       0.00000000
Si       3.37389588       0.47620557      -1.89767066       0.00000000
