10
Lattice="16.28999089631971 0.0 0.0 0.0 16.28999089631971 0.0 0.0 0.0 34.51877397758722" Properties=species:S:1:pos:R:3:initial_magmoms:R:1 pbc="T T T"
Si      -1.75251078       0.05157414      -1.53898588       0.00000000
Si       0.30449268      -2.31964713      -0.02495709       0.00000000
Si       2.05180110       0.75307041      -0.85213093       0.00000000
Si      -0.17213643       1.50485391       1.86574078       0.00000000
Si       2.03969763      -0.19145637       2.45987825       0.00000000
Si      -2.55417426       1.43192358       1.73004740       0.00000000
Si       1.68320890      -2.50431057       1.83577846       0.00000000
Si       1.35133695      -2.63355543      -2.12791101       0.00000000
Si      -3.33560556       1.47584142      -0.50932479       0.00000000
Si       3.30555770       1.28037771       1.06566419       0.00000000
