10
Lattice="16.28999089631971 0.0 0.0 0.0 16.28999089631971 0.0 0.0 0.0 34.51877397758722" Properties=species:S:1:pos:R:3:initial_magmoms:R:1 pbc="T T T"
Si      -1.27755954       1.78507449       0.89282859       0.00000000
Si      -0.78143130       0.04391784      -2.23937219       0.00000000
Si      -0.46029024      -1.87983342       1.39096929       0.00000000
Si       2.38203783       0.07293033       0.13569338       0.00000000
Si       2.55417426      -1.43192358      -1.73004740       0.00000000
Si       2.49435738      -0.07640010       2.59401828       0.00000000
Si      -2.49388497      -1.08818829       2.39877998       0.00000000
Si       0.80166348      -1.38034944      -3.26903328       0.00000000
Si      -3.04303716      -0.61123338      -2.00177934       0.00000000
Si      -3.34884933       0.87026067       1.46107696       0.00000000
