10
Lattice="16.28999089631971 0.0 0.0 0.0 16.28999089631971 0.0 0.0 0.0 34.51877397758722" Properties=species:S:1:pos:R:3:initial_magmoms:R:1 pbc="T T T"
Si      -0.65462994       2.01368835       0.97194566       0.00000000
Si       1.84629231      -1.25753913       0.74826388       0.00000000
Si      -1.37746611      -1.61362224      -1.02582950       0.00000000
Si       1.00825326       1.30953681      -1.68682987       0.00000000
Si       2.26093797      -2.06462718      -1.40163560       0.00000000
Si       1.52332677       2.91374343       1.47098386       0.00000000
Si       0.26723745      -3.15644814      -1.82832240       0.00000000
Si       2.78718642       0.04150692      -2.40792746       0.00000000
Si      -1.42667820       1.51700625       3.07465795       0.00000000
Si       1.66166145       3.43041336      -0.81336633       0.00000000
