10
Lattice="16.28999089631971 0.0 0.0 0.0 16.28999089631971 0.0 0.0 0.0 34.51877397758722" Properties=species:S:1:pos:R:3:initial_magmoms:R:1 pbc="T T T"
Si      -1.35678518       1.35669636      -1.35755510       0.00000000
Si       1.35776643      -1.35793766      -1.35776221       0.00000000
Si       1.35857441       1.35819504       1.35734799       0.00000000
Si      -1.35833273      -1.35868211       1.35745155       0.00000000
Si      -2.71444265       2.71415835      -0.00055230       0.00000000
Si       2.71505412       2.71437012      -0.00027615       0.00000000
Si       0.00122257       2.71438641      -2.71552443       0.00000000
Si      -2.71579472      -0.00008145      -2.71479953       0.00000000
Si       0.00137417      -2.71571187      -2.71490309       0.00000000
Si      -2.71475216      -2.71588175      -0.00041423       0.00000000
