10
Lattice="16.28999089631971 0.0 0.0 0.0 16.28999089631971 0.0 0.0 0.0 34.51877397758722" Properties=species:S:1:pos:R:3:initial_magmoms:R:1 pbc="T T T"
Si       1.35679410      -1.35657046      -1.35734799       0.00000000
Si       1.35733167       1.35709660       1.35634694       0.00000000
Si      -1.35809893      -1.35715690       1.35655406       0.00000000
Si      -1.35826509       1.35834116      -1.35758962       0.00000000
Si       2.71373481       0.00053315       2.71196899       0.00000000
Si       2.71394658      -2.71386955      -0.00003452       0.00000000
Si      -0.00102627      -2.71341343      -2.71486857       0.00000000
Si      -0.00516393      -2.71282699       2.71593865       0.00000000
Si       2.71518462      -0.00045801      -2.71386753       0.00000000
Si      -2.71465735       0.00056695      -2.71473050       0.00000000
