10
Lattice="16.28999089631971 0.0 0.0 0.0 16.28999089631971 0.0 0.0 0.0 34.51877397758722" Properties=species:S:1:pos:R:3:initial_magmoms:R:1 pbc="T T T"
Si      -2.31743658       0.14520906       0.14749880       0.00000000
Si       0.98267796      -1.89990270      -1.05789746       0.00000000
Si       0.99875619       0.32822721       2.21441511       0.00000000
Si       1.36256076       1.35363384      -1.61306321       0.00000000
Si       2.85451299      -0.34003746      -0.71657563       0.00000000
Si       2.77768935      -0.93980268       1.49331752       0.00000000
Si       0.71094447      -1.31356044      -3.30624454       0.00000000
Si      -3.03714099      -1.78224003       1.34982289       0.00000000
Si      -1.90023664       3.31128459      -0.71747312       0.00000000
Si      -3.11600726       2.09577366       1.11720074       0.00000000
