10
Lattice="16.28999089631971 0.0 0.0 0.0 16.28999089631971 0.0 0.0 0.0 34.51877397758722" Properties=species:S:1:pos:R:3:initial_magmoms:R:1 pbc="T T T"
Si       1.55983266       0.99087183      -1.41727261       0.00000000
Si       0.94931604      -0.82909584       2.08697172       0.00000000
Si      -1.15380441      -1.76520069      -1.30191081       0.00000000
Si      -1.53463203       1.90887849       0.48012190       0.00000000
Si       0.47377836      -3.09097863       1.39352368       0.00000000
Si      -0.89946864       0.07977213       3.36295892       0.00000000
Si       0.09640422       2.22259131      -2.80672308       0.00000000
Si      -0.64089747       2.43217845       2.75404740       0.00000000
Si      -2.78901904      -1.13332788       2.28911378       0.00000000
Si       2.47223556      -2.87363745      -0.19237323       0.00000000
