10
Lattice="16.28999089631971 0.0 0.0 0.0 16.28999089631971 0.0 0.0 0.0 34.33025523377368" Properties=species:S:1:pos:R:3:initial_magmoms:R:1 pbc="T T T"
Si       1.32307380       1.37666138      -1.39041044       0.00000000
Si       1.37787336      -1.35109195       1.40699197       0.00000000
Si      -1.23054660       1.39673066       1.58176739       0.00000000
Si      -1.40750487      -1.35399548      -1.47208217       0.00000000
Si      -2.76709108      -0.40226037       1.65255642       0.00000000
Si       2.50162272      -0.15261938      -2.81858419       0.00000000
Si      -0.22348251       2.58449972      -2.80406248       0.00000000
Si       2.60288136      -2.86426811       0.05489411       0.00000000
Si      -2.85961339       2.62434506       0.20426513       0.00000000
Si       2.74954023       2.77084103       0.09715468       0.00000000
