10
Lattice="16.28999089631971 0.0 0.0 0.0 16.28999089631971 0.0 0.0 0.0 34.33025523377368" Properties=species:S:1:pos:R:3:initial_magmoms:R:1 pbc="T T T"
Si       1.05205707       1.14494265       1.77322733       0.00000000
Si      -0.22125078      -2.10864276       1.09063849       0.00000000
Si      -2.10691602       1.13751441      -0.32799144       0.00000000
Si       1.52493948      -0.06727770      -1.89365794       0.00000000
Si       0.05942592       3.22605531       1.50287642       0.00000000
Si      -1.08090666      -1.39455432       3.18444192       0.00000000
Si       3.25944981       1.34853507       1.07484656       0.00000000
Si      -1.88441091       2.02960368      -2.46968561       0.00000000
Si      -2.20463973       2.37589650       1.91895935       0.00000000
Si       0.43409592      -1.23984819      -3.57611603       0.00000000
