10
Lattice="16.28999089631971 0.0 0.0 0.0 16.28999089631971 0.0 0.0 0.0 34.33025523377368" Properties=species:S:1:pos:R:3:initial_magmoms:R:1 pbc="T T T"
Si      -2.19457251       0.25120483      -0.78939033       0.00000000
Si       0.63978975      -2.24022428      -0.35936931       0.00000000
Si       1.46064285       1.24366005      -1.48684419       0.00000000
Si      -0.33871797       0.59417449       2.42182921       0.00000000
Si       1.57778424       2.14011504       2.34149637       0.00000000
Si      -0.11800476       2.71995759      -2.27970187       0.00000000
Si       2.73533535      -1.93969007      -1.39023879       0.00000000
Si      -1.81894140       1.26597735      -2.90904446       0.00000000
Si      -2.93970969       2.14014762       0.41972194       0.00000000
Si       2.35115199      -0.28771398      -3.00455129       0.00000000
