10
Lattice="16.28999089631971 0.0 0.0 0.0 16.28999089631971 0.0 0.0 0.0 34.33025523377368" Properties=species:S:1:pos:R:3:initial_magmoms:R:1 pbc="T T T"
Si      -1.03606029      -1.61818344       1.36169458       0.00000000
Si      -0.74274255       2.25122913      -0.29647625       0.00000000
Si       1.63517391       1.07981523       1.38813576       0.00000000
Si      -0.35771211      -0.44869176      -2.38272703       0.00000000
Si       0.66569085       2.85464331      -2.20942780       0.00000000
Si       0.27740241       2.39140458       2.82430159       0.00000000
Si      -2.45667861      -0.35999271       2.81985582       0.00000000
Si      -2.27421432      -1.99463231      -2.30239418       0.00000000
Si      -1.91865249      -3.27858146      -0.24999306       0.00000000
Si      -2.72650617       2.21060187      -1.53119890       0.00000000
