10
Lattice="16.28999089631971 0.0 0.0 0.0 16.28999089631971 0.0 0.0 0.0 34.33025523377368" Properties=species:S:1:pos:R:3:initial_magmoms:R:1 pbc="T T T"
Si       1.08538152      -0.56696205      -1.93217650       0.00000000
Si      -1.45142827       1.80046854      -0.26496106       0.00000000
Si      -1.41824554      -1.88731772       0.09094090       0.00000000
Si       1.60914412       0.20834910       1.72684713       0.00000000
Si       2.62192600       1.23202899      -2.00296553       0.00000000
Si      -2.46337936      -1.70614034      -1.99427997       0.00000000
Si       1.67419009      -2.88284849      -1.43119481       0.00000000
Si       0.12768591      -3.64917896       0.24484352       0.00000000
Si       3.27688174       1.62808776       0.70991574       0.00000000
Si      -0.19338511       3.48172686      -1.54235624       0.00000000
