10
Lattice="16.28999089631971 0.0 0.0 0.0 16.28999089631971 0.0 0.0 0.0 34.33025523377368" Properties=species:S:1:pos:R:3:initial_magmoms:R:1 pbc="T T T"
Si      -1.10425023       1.89187173       0.82392659       0.00000000
Si      -1.02429891      -0.51821748      -2.04546641       0.00000000
Si       2.33546472       0.36768159       0.00494356       0.00000000
Si      -0.02101410      -1.56366081       1.78949988       0.00000000
Si      -0.35111466       1.68805125       3.00667976       0.00000000
Si       3.28502511      -1.60533063      -0.84517703       0.00000000
Si       3.00713400       0.21528864       2.25604831       0.00000000
Si      -2.97746991       0.82204227      -2.29230108       0.00000000
Si      -1.13533155      -0.59212521       3.63114746       0.00000000
Si      -1.78070877      -2.73342942      -2.11203281       0.00000000
