10
Lattice="16.28999089631971 0.0 0.0 0.0 16.28999089631971 0.0 0.0 0.0 34.33025523377368" Properties=species:S:1:pos:R:3:initial_magmoms:R:1 pbc="T T T"
Si       1.11431745      -0.97153560      -1.84164757       0.00000000
Si       0.13092273      -2.10453768       1.18666027       0.00000000
Si      -2.22687558       0.05281218      -0.96004612       0.00000000
Si       0.78421689       2.28017646      -0.62446769       0.00000000
Si       1.20081735       1.30450320       2.04951738       0.00000000
Si       3.28300515      -1.32453990      -0.93392079       0.00000000
Si       2.60330490      -2.34035172       1.10265408       0.00000000
Si      -2.18090520       2.18007441      -2.06184195       0.00000000
Si       0.03108132       2.48399694      -2.80722087       0.00000000
Si       0.14051754      -3.10171374      -2.22418982       0.00000000
