10
Lattice="16.28999089631971 0.0 0.0 0.0 16.28999089631971 0.0 0.0 0.0 34.33025523377368" Properties=species:S:1:pos:R:3:initial_magmoms:R:1 pbc="T T T"
Si      -1.31515686      -1.12674672      -1.60243422       0.00000000
Si       0.51826635       2.17644893      -0.79042024       0.00000000
Si      -1.30000716       0.04018743       2.00529999       0.00000000
Si       1.89258849      -1.50552180       0.06327070       0.00000000
Si       0.32982363      -1.52656848      -3.27933080       0.00000000
Si       1.11869946      -2.98312254       1.75657715       0.00000000
Si       1.68332715       3.11854850       0.98431763       0.00000000
Si       0.22388976       0.68332382       3.64014199       0.00000000
Si       2.21820930       1.48172930       2.65098379       0.00000000
Si      -1.93277592      -3.18583530      -0.58320270       0.00000000
