10
Lattice="16.28999089631971 0.0 0.0 0.0 16.28999089631971 0.0 0.0 0.0 34.33025523377368" Properties=species:S:1:pos:R:3:initial_magmoms:R:1 pbc="T T T"
Si      -0.35556183       1.28394915      -2.05240113       0.00000000
Si       0.88259220       1.66039802       1.61168764       0.00000000
Si       1.76829579      -1.44195822      -1.01748067       0.00000000
Si      -1.71398493      -1.02711708       1.60349644       0.00000000
Si      -2.88471465      -2.32889985       0.08654662       0.00000000
Si       2.18191518       0.24047298       3.07222110       0.00000000
Si       1.91865249       3.27858146       0.24999306       0.00000000
Si      -2.53293210       2.28987620      -1.73961800       0.00000000
Si       0.64128843      -2.66743863      -2.71185137       0.00000000
Si       1.56094038       2.82988970      -2.13273397       0.00000000
