10
Lattice="16.28999089631971 0.0 0.0 0.0 16.28999089631971 0.0 0.0 0.0 34.33025523377368" Properties=species:S:1:pos:R:3:initial_magmoms:R:1 pbc="T T T"
Si      -1.12172940      -1.88475626       1.02379744       0.00000000
Si      -1.22264595       1.06380216      -1.84868528       0.00000000
Si       1.01103885      -1.42749270      -1.73790148       0.00000000
Si       1.45924191       0.55053684       2.11433294       0.00000000
Si      -0.52922952       2.80987839      -0.33303799       0.00000000
Si       0.89251281      -3.12153248       1.77566478       0.00000000
Si       2.30171184      -2.89402276      -0.44876535       0.00000000
Si      -0.23939784       1.63740564       3.44511170       0.00000000
Si      -2.59431282      -3.05813082      -0.53884799       0.00000000
Si       1.87703154      -1.54779435       3.25512796       0.00000000
