10
Lattice="16.28999089631971 0.0 0.0 0.0 16.28999089631971 0.0 0.0 0.0 34.33025523377368" Properties=species:S:1:pos:R:3:initial_magmoms:R:1 pbc="T T T"
Si       1.16444178       1.05650424       1.72056469       0.00000000
Si       0.84253509      -2.20002966       0.04737578       0.00000000
Si       0.67970025       1.01581182      -2.03657487       0.00000000
Si      -2.47238217       0.23581404       0.08400618       0.00000000
Si      -0.66497409       2.25636048       2.66509353       0.00000000
Si       0.37468629      -2.70879894       2.28986363       0.00000000
Si      -1.48898745       1.36881612      -2.94430166       0.00000000
Si      -2.60330490       2.34035172      -1.10265408       0.00000000
Si      -0.24529482      -3.29970240      -1.70061880       0.00000000
Si       3.49267374       1.22199435       1.00210071       0.00000000
