10
Lattice="16.28999089631971 0.0 0.0 0.0 16.28999089631971 0.0 0.0 0.0 34.33025523377368" Properties=species:S:1:pos:R:3:initial_magmoms:R:1 pbc="T T T"
Si      -1.26737829       1.45526715      -1.28838773       0.00000000
Si       1.35125550       1.36259334       1.35541073       0.00000000
Si      -1.36115982      -1.35700587       1.35225234       0.00000000
Si       1.53314964      -1.06073964      -1.45873799       0.00000000
Si       0.44732340       2.43454050      -2.43170019       0.00000000
Si       2.21016204       0.83243529      -2.76416869       0.00000000
Si       0.22662648      -2.29001562      -2.99713393       0.00000000
Si      -2.50378929       0.21305691      -2.82730206       0.00000000
Si       2.70471015      -2.68177383      -0.02154568       0.00000000
Si      -2.70396081      -2.70508482      -0.03821646       0.00000000
