10
Lattice="16.28999089631971 0.0 0.0 0.0 16.28999089631971 0.0 0.0 0.0 34.33025523377368" Properties=species:S:1:pos:R:3:initial_magmoms:R:1 pbc="T T T"
Si       1.38855960      -1.28572083       1.38574153       0.00000000
Si       1.35866745       1.35092970      -1.36184766       0.00000000
Si      -1.35812988      -1.36466217      -1.36174467       0.00000000
Si      -1.38500838       1.32494715       1.40747259       0.00000000
Si      -0.29313855      -2.20284783       2.87303201       0.00000000
Si       2.70456354       2.71163340       0.00686605       0.00000000
Si      -2.70404226       2.71220355      -0.00157919       0.00000000
Si      -2.72305269      -2.70309744       0.02183405       0.00000000
Si       0.00353493       2.70858717      -2.72201313       0.00000000
Si      -2.71098180      -0.00656487      -2.72105188       0.00000000
