10
Lattice="16.28999089631971 0.0 0.0 0.0 16.28999089631971 0.0 0.0 0.0 34.33025523377368" Properties=species:S:1:pos:R:3:initial_magmoms:R:1 pbc="T T T"
Si      -2.15910918      -0.72259182      -0.91836917       0.00000000
Si       1.69055991       0.07219728      -1.79712121       0.00000000
Si      -0.40653324       2.56502340       0.32946764       0.00000000
Si       0.02169828      -0.53400249       2.59735990       0.00000000
Si      -1.74114036       1.06810272       2.92982839       0.00000000
Si       2.91462309       2.01606669      -1.23132395       0.00000000
Si      -2.60915301       2.40749910       1.25593876       0.00000000
Si       3.26459745      -1.60896330      -1.35882659       0.00000000
Si      -3.73616037       1.18201869      -0.43843193       0.00000000
Si      -3.23040474      -2.17139184       0.83446598       0.00000000
