10
Lattice="16.28999089631971 0.0 0.0 0.0 16.28999089631971 0.0 0.0 0.0 34.33025523377368" Properties=species:S:1:pos:R:3:initial_magmoms:R:1 pbc="T T T"
Si      -1.34674317      -1.35291708       1.36195065       0.00000000
Si      -1.35389448       1.35659862      -1.35834597       0.00000000
Si       1.36083402      -1.35653346      -1.35848329       0.00000000
Si       1.35897696       1.35922131       1.36418211       0.00000000
Si       2.56855833      -0.07887618       2.77419515       0.00000000
Si      -2.62482399       0.04035033       2.78274338       0.00000000
Si      -2.71251306       2.71286747       0.00168218       0.00000000
Si      -2.71249677      -0.00083079      -2.71500975       0.00000000
Si       0.00228060       2.71405034      -2.71490676       0.00000000
Si       2.71596654      -2.71419093       0.00168218       0.00000000
