10
Lattice="16.28999089631971 0.0 0.0 0.0 16.28999089631971 0.0 0.0 0.0 34.33025523377368" Properties=species:S:1:pos:R:3:initial_magmoms:R:1 pbc="T T T"
Si       1.76495634      -0.99023652       1.22002929       0.00000000
Si      -1.64498049       0.39982176       1.67689658       0.00000000
Si       0.76046607       2.12326827      -0.78173468       0.00000000
Si      -0.79882902      -0.90450225      -2.60614845       0.00000000
Si      -0.32982363       1.52656848       3.27933080       0.00000000
Si       1.56276486       0.02104668       3.34260150       0.00000000
Si       3.12450345      -0.85302585      -1.89609539       0.00000000
Si      -3.41288532       1.68811641       0.72066112       0.00000000
Si       1.17711540      -3.18345696       1.87714507       0.00000000
Si      -2.26259955      -1.65926682       2.69612810       0.00000000
