10
Lattice="16.28999089631971 0.0 0.0 0.0 16.28999089631971 0.0 0.0 0.0 34.33025523377368" Properties=species:S:1:pos:R:3:initial_magmoms:R:1 pbc="T T T"
Si      -1.35537198      -1.35698958       1.35604584       0.00000000
Si      -1.35796046       1.35653346      -1.35769369       0.00000000
Si       1.35785295      -1.35783666      -1.35838030       0.00000000
Si       1.35982404       1.35879777       1.35556522       0.00000000
Si      -2.71409633       0.00074934      -2.71171405       0.00000000
Si       2.70995553       0.00017919       2.71737854       0.00000000
Si      -2.71170916      -0.00185706       2.71603966       0.00000000
Si      -2.71422377       2.71454931      -0.00030897       0.00000000
Si      -0.00250866      -2.71422351       2.71466645       0.00000000
Si       2.71555929       0.00153126      -2.71408284       0.00000000
