10
Lattice="16.28999089631971 0.0 0.0 0.0 16.28999089631971 0.0 0.0 0.0 34.33025523377368" Properties=species:S:1:pos:R:3:initial_magmoms:R:1 pbc="T T T"
Si       1.35785700       1.35710361      -1.35450098       0.00000000
Si      -1.35746199       1.35553977       1.35666378       0.00000000
Si      -1.35581670      -1.35868374      -1.35817432       0.00000000
Si       1.35710771      -1.35868374       1.35748771       0.00000000
Si       2.70500730       0.00900837      -2.71439181       0.00000000
Si       0.00224802       2.70756090      -2.71494109       0.00000000
Si       2.71399286       2.71288773      -0.00048062       0.00000000
Si       0.00004887       2.71388142       2.71384252       0.00000000
Si      -2.71485882       2.71309950      -0.00078960       0.00000000
Si       0.00063531      -2.71569613       2.71363654       0.00000000
