10
Lattice="16.28999089631971 0.0 0.0 0.0 16.28999089631971 0.0 0.0 0.0 34.33025523377368" Properties=species:S:1:pos:R:3:initial_magmoms:R:1 pbc="T T T"
Si      -2.17122894       0.57295188       0.61265808       0.00000000
Si       0.29422998       0.16397514      -2.30778404       0.00000000
Si       1.12933683       1.76666679       1.02135999       0.00000000
Si       0.24024492      -2.03631516       1.13169750       0.00000000
Si      -0.34279047       3.50982711       0.41182597       0.00000000
Si       0.06775011      -3.53829551      -0.68804736       0.00000000
Si      -1.56514320      -0.76628160      -3.21684970       0.00000000
Si       3.10879989       2.07412425      -0.22596187       0.00000000
Si      -2.40699411      -0.01283652       2.97245248       0.00000000
Si       2.34750303      -1.89242559       2.36683211       0.00000000
