10
Lattice="16.28999089631971 0.0 0.0 0.0 16.28999089631971 0.0 0.0 0.0 34.33025523377368" Properties=species:S:1:pos:R:3:initial_magmoms:R:1 pbc="T T T"
Si      -0.60364224      -2.04553530       0.93319985       0.00000000
Si       2.21254038       0.46128393       0.56322248       0.00000000
Si      -1.28622582       1.46184831       1.31697799       0.00000000
Si      -0.31996818       0.56433447      -2.28165870       0.00000000
Si       1.93080483       2.81237076       0.71142628       0.00000000
Si      -2.55715533      -0.11976408      -2.54665409       0.00000000
Si       0.76413132      -3.56374701      -0.24587343       0.00000000
Si      -0.31830660       3.57870123       0.93041910       0.00000000
Si       2.70865233      -0.27069093       2.72039961       0.00000000
Si      -0.77817330       1.24665741       3.65280986       0.00000000
