10
Lattice="16.28999089631971 0.0 0.0 0.0 16.28999089631971 0.0 0.0 0.0 34.33025523377368" Properties=species:S:1:pos:R:3:initial_magmoms:R:1 pbc="T T T"
Si      -1.37496885       1.17990099      -1.58705426       0.00000000
Si      -1.29249910      -1.47155715       1.43744292       0.00000000
Si       0.89344134       1.86323391       1.36534934       0.00000000
Si       1.34363178      -1.51140249      -1.57088470       0.00000000
Si      -2.63274451       2.66993100      -0.19293614       0.00000000
Si       2.72525184       2.71726974      -0.02791051       0.00000000
Si      -0.87926904       3.54429675       1.30729685       0.00000000
Si      -0.01329264       2.53829151      -2.96514013       0.00000000
Si       0.33656769      -2.69917155       2.81494518       0.00000000
Si      -2.70512164      -2.88815184      -0.03055394       0.00000000
