10
Lattice="16.28999089631971 0.0 0.0 0.0 16.28999089631971 0.0 0.0 0.0 34.33025523377368" Properties=species:S:1:pos:R:3:initial_magmoms:R:1 pbc="T T T"
Si      -1.53632619       1.00807407      -1.40661433       0.00000000
Si      -1.87947504      -0.63552177       1.30235329       0.00000000
Si       1.32434442      -1.46435697      -1.34162712       0.00000000
Si       0.86592753       2.21382729       0.28566221       0.00000000
Si       0.05870916       2.14451334      -2.75407760       0.00000000
Si       1.91106135       2.03264991       2.37088308       0.00000000
Si      -1.05238287      -0.38029005       3.51806353       0.00000000
Si      -2.83431339       2.56828207       0.19228387       0.00000000
Si       2.30073444      -1.82579949       2.47250069       0.00000000
Si      -2.69467551      -0.54771867      -2.73066436       0.00000000
