10
Lattice="16.28999089631971 0.0 0.0 0.0 16.28999089631971 0.0 0.0 0.0 34.33025523377368" Properties=species:S:1:pos:R:3:initial_magmoms:R:1 pbc="T T T"
Si       1.33745365      -1.91273922       0.34035034       0.00000000
Si       1.15625835       2.09658816       0.05228501       0.00000000
Si      -1.90602774      -0.41482485       1.47067463       0.00000000
Si       2.11859988       2.09098440       2.20602910       0.00000000
Si       2.09615552      -1.74900843       2.59104313       0.00000000
Si      -3.35311731       1.44550944       1.04556284       0.00000000
Si      -2.30073444       1.82579949      -2.47250069       0.00000000
Si       0.15706818      -3.84245262      -0.34347440       0.00000000
Si      -0.38967309       3.85844940      -0.10161761       0.00000000
Si      -0.97639002       0.36144252      -3.81412782       0.00000000
