10
Lattice="16.28999089631971 0.0 0.0 0.0 16.28999089631971 0.0 0.0 0.0 34.33025523377368" Properties=species:S:1:pos:R:3:initial_magmoms:R:1 pbc="T T T"
Si      -1.75990481       1.32888933       0.80452998       0.00000000
Si      -1.53748604      -1.37679822      -1.12311493       0.00000000
Si       0.89557533      -1.64639772       1.49549541       0.00000000
Si       1.79680329       0.84087351      -1.62684304       0.00000000
Si       2.09800539      -2.70593190      -0.23838943       0.00000000
Si      -0.06641433      -3.36313566      -1.01507755       0.00000000
Si      -0.52581514       2.24018451       2.66864126       0.00000000
Si       2.62868472       2.51959059      -0.15053825       0.00000000
Si       2.19582684      -0.38343402       2.90760057       0.00000000
Si      -3.67625294       0.26441928      -0.20285759       0.00000000
