10
Lattice="16.28999089631971 0.0 0.0 0.0 16.28999089631971 0.0 0.0 0.0 34.33025523377368" Properties=species:S:1:pos:R:3:initial_magmoms:R:1 pbc="T T T"
Si      -1.35666436       1.35689184      -1.35752204       0.00000000
Si      -1.35708790      -1.35814617       1.35621749       0.00000000
Si       1.35760706      -1.35775521      -1.35765936       0.00000000
Si       1.35786770       1.35751086       1.35827731       0.00000000
Si       0.00166185      -2.71393029      -2.71459779       0.00000000
Si      -2.71266025       0.00141723       2.71641729       0.00000000
Si      -2.71456618       2.71452878       0.00006866       0.00000000
Si      -2.71438699      -2.71513575       0.00003433       0.00000000
Si       2.71548444       2.71503491       0.00034330       0.00000000
Si      -0.00052778       2.71588297      -2.71500975       0.00000000
