10
Lattice="16.28999089631971 0.0 0.0 0.0 16.28999089631971 0.0 0.0 0.0 34.33025523377368" Properties=species:S:1:pos:R:3:initial_magmoms:R:1 pbc="T T T"
Si       2.06607699      -0.21655926      -1.05853968       0.00000000
Si      -1.38771578      -1.85699484      -0.29911968       0.00000000
Si       0.16594623       0.04958676       2.34692055       0.00000000
Si      -0.86859909       2.00613698      -0.97086016       0.00000000
Si      -1.60460247       2.92477895       1.10313471       0.00000000
Si       2.71793763       2.01361409      -1.52477914       0.00000000
Si      -1.44619688       1.65876087       3.06250079       0.00000000
Si      -0.07535754      -3.84188247      -0.37488660       0.00000000
Si      -2.35005730      -1.85139108      -2.45286378       0.00000000
Si       0.48806469      -2.16624420       3.20984633       0.00000000
