10
Lattice="16.28999089631971 0.0 0.0 0.0 16.28999089631971 0.0 0.0 0.0 34.45770212530097" Properties=species:S:1:pos:R:3:initial_magmoms:R:1 pbc="T T T"
Si       1.28744757       1.95577740      -0.14486026       0.00000000
Si       1.31672070      -1.92647169      -0.44564171       0.00000000
Si      -2.21239377       0.07377741      -0.91492142       0.00000000
Si      -0.42094989      -0.37649448       2.33006558       0.00000000
Si      -2.16118453      -2.23182774      -1.33981958       0.00000000
Si      -0.45348102      -3.40123797      -0.18617507       0.00000000
Si      -0.75904884       1.84155192       2.93986387       0.00000000
Si       0.01420488       3.26977345      -1.66778817       0.00000000
Si       1.80625149      -0.90334566       3.06715070       0.00000000
Si       3.01461111      -1.73415195       1.19382222       0.00000000
