10
Lattice="16.28999089631971 0.0 0.0 0.0 16.28999089631971 0.0 0.0 0.0 34.45770212530097" Properties=species:S:1:pos:R:3:initial_magmoms:R:1 pbc="T T T"
Si       1.34091135       1.34563545       1.37509395       0.00000000
Si      -1.33387407       1.39545027      -1.38201651       0.00000000
Si      -1.37531583      -1.36742658       1.37151035       0.00000000
Si       1.31888727      -1.42829417      -1.43362384       0.00000000
Si      -2.12480244      -0.39302883      -2.72363275       0.00000000
Si       2.69149896       2.69542485      -0.02437884       0.00000000
Si      -0.66383379      -2.34505139      -2.93279112       0.00000000
Si       2.67972129      -2.73840776       0.01178109       0.00000000
Si       2.69869914      -0.01088172       2.73162553       0.00000000
Si      -0.01500309       2.70319518       2.73310721       0.00000000
