10
Lattice="16.28999089631971 0.0 0.0 0.0 16.28999089631971 0.0 0.0 0.0 34.45770212530097" Properties=species:S:1:pos:R:3:initial_magmoms:R:1 pbc="T T T"
Si       1.78315227       0.90049491      -1.05757638       0.00000000
Si       0.58986090      -1.00826629       1.93969405       0.00000000
Si      -1.07474904      -1.74093578      -1.00595872       0.00000000
Si      -2.28994883      -0.32418240      -2.40397739       0.00000000
Si       0.43440543       2.37327381      -2.39488055       0.00000000
Si      -0.15838767       0.79148223       3.40955707       0.00000000
Si      -0.84035223      -3.07360439       1.99182858       0.00000000
Si      -3.60412699       0.95845473      -0.89341980       0.00000000
Si       3.47209947       1.66939920       0.34027000       0.00000000
Si       0.40798305      -3.04620461      -2.38209674       0.00000000
