10
Lattice="16.28999089631971 0.0 0.0 0.0 16.28999089631971 0.0 0.0 0.0 34.45770212530097" Properties=species:S:1:pos:R:3:initial_magmoms:R:1 pbc="T T T"
Si      -1.68894720      -0.76890429      -1.39784638       0.00000000
Si       1.80506232      -1.63116657       0.02491293       0.00000000
Si       0.89352279       1.81374489      -1.37376044       0.00000000
Si      -0.32988879      -2.03150146      -2.75086327       0.00000000
Si      -1.41234300       2.31806700       2.13165802       0.00000000
Si       1.06422570       2.82582630       2.03558989       0.00000000
Si       2.39436936       0.69571332      -2.74648714       0.00000000
Si       2.60869689       2.63867049       0.00344577       0.00000000
Si       0.96902694      -3.42501227      -1.29871152       0.00000000
Si       1.40053275      -2.94204893       1.99455074       0.00000000
