10
Lattice="16.28999089631971 0.0 0.0 0.0 16.28999089631971 0.0 0.0 0.0 34.45770212530097" Properties=species:S:1:pos:R:3:initial_magmoms:R:1 pbc="T T T"
Si      -0.73195857      -1.49142932       1.69094376       0.00000000
Si       1.68101397       1.49165901       0.86674952       0.00000000
Si       0.74824857      -1.79974852      -1.46986302       0.00000000
Si      -1.88359967       1.63077561      -0.56775988       0.00000000
Si       0.15838767      -0.79148223      -3.40955707       0.00000000
Si       0.57987513       2.77733097       2.54880319       0.00000000
Si       0.48959595      -0.96725622       3.68514993       0.00000000
Si      -3.79531655       0.51478029       0.32080139       0.00000000
Si      -0.32102703      -3.70948454       0.95540924       0.00000000
Si      -3.09493873      -1.40155902       1.86147502       0.00000000
