10
Lattice="16.28999089631971 0.0 0.0 0.0 16.28999089631971 0.0 0.0 0.0 34.45770212530097" Properties=species:S:1:pos:R:3:initial_magmoms:R:1 pbc="T T T"
Si      -0.70128450      -1.70798925       1.49728934       0.00000000
Si      -1.46096865       1.95202255       0.20915837       0.00000000
Si       1.98272106       0.91675722       1.49916729       0.00000000
Si      -1.89167625      -1.10338590      -1.55359528       0.00000000
Si       0.18909432       2.63916733      -2.31328467       0.00000000
Si      -2.07267444      -0.39067382       2.93950693       0.00000000
Si       0.66383379       2.34505139       2.93279112       0.00000000
Si       2.53832409       1.78452877      -2.22283315       0.00000000
Si      -3.33660414       1.06781439       1.55616380       0.00000000
Si      -2.15207190      -3.31915170      -0.37662289       0.00000000
