10
Lattice="16.28999089631971 0.0 0.0 0.0 16.28999089631971 0.0 0.0 0.0 34.45770212530097" Properties=species:S:1:pos:R:3:initial_magmoms:R:1 pbc="T T T"
Si       2.36298016      -0.08987030      -0.17053126       0.00000000
Si      -0.70397791       1.74324177       1.53274836       0.00000000
Si      -0.59734357      -2.34917180       0.28313910       0.00000000
Si      -0.70037782       1.91633931      -1.54067364       0.00000000
Si      -1.74024997       0.14860715      -2.67195509       0.00000000
Si       2.77391170      -2.30792552      -0.90606578       0.00000000
Si      -3.18952240      -1.33371836      -1.54598013       0.00000000
Si      -1.93227649       3.26093220       0.08018312       0.00000000
Si       1.44187840      -3.50792837       0.62675149       0.00000000
Si       3.09493873       1.40155902      -1.86147502       0.00000000
