10
Lattice="16.28999089631971 0.0 0.0 0.0 16.28999089631971 0.0 0.0 0.0 34.45770212530097" Properties=species:S:1:pos:R:3:initial_magmoms:R:1 pbc="T T T"
Si      -1.35606105       1.35558864       1.35343038       0.00000000
Si      -1.35610992      -1.35843939      -1.35753085       0.00000000
Si       1.35553977      -1.35591444       1.36073542       0.00000000
Si       1.35845568       1.35674523      -1.35742748       0.00000000
Si      -2.68164025      -0.00777033       2.72415854       0.00000000
Si      -2.71247071       2.71265967      -0.00020675       0.00000000
Si       2.71370223       2.71207323       0.00017229       0.00000000
Si       0.00177561       2.71362078      -2.71454483       0.00000000
Si      -2.71364521      -0.00140094      -2.71461375       0.00000000
Si      -0.00410508       2.70097974       2.72774214       0.00000000
