10
Lattice="16.28999089631971 0.0 0.0 0.0 16.28999089631971 0.0 0.0 0.0 34.45770212530097" Properties=species:S:1:pos:R:3:initial_magmoms:R:1 pbc="T T T"
Si      -1.35553977       1.35591444      -1.36073542       0.00000000
Si      -1.33731126      -1.37417553       1.36580070       0.00000000
Si       1.36044306      -1.36019871      -1.35946048       0.00000000
Si       1.36681245       1.35264015       1.37851560       0.00000000
Si       2.59390557      -0.26430525       2.72719082       0.00000000
Si      -2.71160082       2.71150308      -0.00730504       0.00000000
Si      -2.71164969      -0.00252495      -2.71826627       0.00000000
Si       0.00291591       2.71265967      -2.71816289       0.00000000
Si      -2.71352304      -2.71883358       0.00013783       0.00000000
Si       2.71912680       2.71529865      -0.00062024       0.00000000
