10
Lattice="16.28999089631971 0.0 0.0 0.0 16.28999089631971 0.0 0.0 0.0 34.45770212530097" Properties=species:S:1:pos:R:3:initial_magmoms:R:1 pbc="T T T"
Si       1.01579553       2.08604853       0.11054037       0.00000000
Si      -0.47105793      -1.43907489       1.82084937       0.00000000
Si       1.10113884      -1.28567196      -1.68205367       0.00000000
Si      -2.12318973       0.75390120      -0.86192544       0.00000000
Si       0.77369355       2.44097505      -2.21490787       0.00000000
Si      -3.22026259       1.06476327       1.20646820       0.00000000
Si      -2.79887938      -1.11233007       2.01443285       0.00000000
Si       3.20020308       1.60785558       0.80469117       0.00000000
Si      -0.57987513      -2.77733097      -2.54880319       0.00000000
Si       1.63826901       0.41865300      -3.48643225       0.00000000
