10
Lattice="16.28999089631971 0.0 0.0 0.0 16.28999089631971 0.0 0.0 0.0 34.45770212530097" Properties=species:S:1:pos:R:3:initial_magmoms:R:1 pbc="T T T"
Si      -0.83953773      -1.69187940       1.37083153       0.00000000
Si       0.10880091      -0.83289141      -2.20622453       0.00000000
Si      -1.76523327       1.54191366       0.35391526       0.00000000
Si       2.15456427       0.97516827       0.21567088       0.00000000
Si      -2.07560664      -0.35469846      -2.90037532       0.00000000
Si      -1.56222729      -0.46558449       3.25032794       0.00000000
Si      -3.17620791       1.24043463      -1.54191412       0.00000000
Si       1.86880509       0.30678957      -3.27196739       0.00000000
Si       0.89407665      -3.13818705       1.96770818       0.00000000
Si       2.66771556       2.02287591      -1.92280977       0.00000000
