10
Lattice="16.28999089631971 0.0 0.0 0.0 16.28999089631971 0.0 0.0 0.0 34.45770212530097" Properties=species:S:1:pos:R:3:initial_magmoms:R:1 pbc="T T T"
Si       1.49752015       1.52816490       0.85665341       0.00000000
Si       0.31513005       0.23556969      -2.29567677       0.00000000
Si      -2.03953473       0.76224168       0.91412889       0.00000000
Si       0.52163838      -2.16762885       0.84948621       0.00000000
Si      -2.51406243      -1.86360858      -1.60521295       0.00000000
Si      -1.98341568      -0.49757805       2.88597200       0.00000000
Si       0.00399431      -1.76067207       3.06863238       0.00000000
Si       3.43036123       0.78672555      -0.37348724       0.00000000
Si      -1.44447732      -3.26897620       0.03342399       0.00000000
Si       2.64295150      -0.09117513      -2.48926025       0.00000000
