10
Lattice="16.28999089631971 0.0 0.0 0.0 16.28999089631971 0.0 0.0 0.0 34.45770212530097" Properties=species:S:1:pos:R:3:initial_magmoms:R:1 pbc="T T T"
Si       0.73539576      -1.81335393       1.30832522       0.00000000
Si       1.93551264       1.31004180       0.44512484       0.00000000
Si      -1.93284108       0.74143935       1.23014065       0.00000000
Si      -0.78740973      -0.87790068      -2.11577301       0.00000000
Si      -3.43036123      -0.78672555       0.37348724       0.00000000
Si       1.21282308       2.53633671       2.32462126       0.00000000
Si      -3.11523118      -0.55115586      -1.92218953       0.00000000
Si       1.33460712      -0.75061062       3.43984541       0.00000000
Si       2.95458246      -2.31348951       0.66951353       0.00000000
Si       3.66912702      -0.13626585       1.04200149       0.00000000
