10
Lattice="16.28999089631971 0.0 0.0 0.0 16.28999089631971 0.0 0.0 0.0 34.45770212530097" Properties=species:S:1:pos:R:3:initial_magmoms:R:1 pbc="T T T"
Si       0.08327448      -0.18898029      -2.32203693       0.00000000
Si      -2.25124542      -0.80332506       0.07580699       0.00000000
Si       1.58162868      -1.44482526       1.09696156       0.00000000
Si      -0.32553936       2.44387467       0.16601730       0.00000000
Si      -0.60377256       2.47168170       2.50803971       0.00000000
Si      -1.65033990       1.25732736      -2.91891358       0.00000000
Si      -2.37302946       2.48362227      -1.03941717       0.00000000
Si      -3.34381572       1.21803588       0.61069420       0.00000000
Si      -0.63127008      -2.36620395      -2.69452490       0.00000000
Si       3.65410764      -0.76281183       0.19806298       0.00000000
