10
Lattice="16.28999089631971 0.0 0.0 0.0 16.28999089631971 0.0 0.0 0.0 34.45770212530097" Properties=species:S:1:pos:R:3:initial_magmoms:R:1 pbc="T T T"
Si      -1.35524655      -1.35532800      -1.35759976       0.00000000
Si      -1.35195597       1.36034532       1.35649712       0.00000000
Si       1.36096434      -1.35268902       1.35994289       0.00000000
Si       1.35969372       1.35936792      -1.35746193       0.00000000
Si       0.01749546       2.69223201       2.71099569       0.00000000
Si      -2.71370223      -2.71207323      -0.00017229       0.00000000
Si      -2.71192662       0.00154755      -2.71471712       0.00000000
Si       0.00267156      -2.71296918      -2.71523399       0.00000000
Si      -2.71249677       2.71650411      -0.00051687       0.00000000
Si       0.00325800       2.71627605      -2.71461375       0.00000000
