10
Lattice="16.28999089631971 0.0 0.0 0.0 16.28999089631971 0.0 0.0 0.0 34.45770212530097" Properties=species:S:1:pos:R:3:initial_magmoms:R:1 pbc="T T T"
Si      -0.24801525      -1.72162724       1.60948571       0.00000000
Si       2.31075279      -0.33635918      -0.44353979       0.00000000
Si      -1.22155452      -0.52417310      -1.99420617       0.00000000
Si      -0.38077875       2.30551230       0.68450264       0.00000000
Si       1.44376641      -3.24733235       0.98552529       0.00000000
Si      -0.22867902      -0.57522271       3.75775235       0.00000000
Si      -0.48959595       0.96725622      -3.68514993       0.00000000
Si       3.07709955       1.32817746      -1.90148044       0.00000000
Si       2.64404619      -2.66123444      -0.97356846       0.00000000
Si      -2.70860020       2.63225712       0.87808611       0.00000000
