10
Lattice="16.28999089631971 0.0 0.0 0.0 16.28999089631971 0.0 0.0 0.0 34.45770212530097" Properties=species:S:1:pos:R:3:initial_magmoms:R:1 pbc="T T T"
Si      -1.43531190       1.22697909       1.34050873       0.00000000
Si      -1.36945143      -1.33188669      -1.35449857       0.00000000
Si       1.34162811       1.38333051      -1.35225882       0.00000000
Si       1.22354190      -1.32229188       1.59756334       0.00000000
Si       2.04605658       0.59127813       2.66974979       0.00000000
Si       0.21313836       2.28884274       2.58977342       0.00000000
Si      -2.51763579      -0.45763497       2.73945777       0.00000000
Si       2.68250688      -2.69206911       0.04358902       0.00000000
Si      -0.65796939      -2.29897512       2.97408039       0.00000000
Si      -0.01749546      -2.69223201      -2.71099569       0.00000000
