10
Lattice="16.28999089631971 0.0 0.0 0.0 16.28999089631971 0.0 0.0 0.0 34.45770212530097" Properties=species:S:1:pos:R:3:initial_magmoms:R:1 pbc="T T T"
Si       0.36149139       1.31031873       1.95540677       0.00000000
Si      -0.23693805      -2.08673271       1.12824917       0.00000000
Si       2.01031632      -0.04890258      -1.31318376       0.00000000
Si      -2.11248720       0.52110081      -1.06953321       0.00000000
Si      -1.97029179       1.03456161       2.58867078       0.00000000
Si      -1.32084207      -1.81840383      -2.91298685       0.00000000
Si       1.17403659      -1.78525368       3.02407854       0.00000000
Si      -2.38506777       2.83525821      -0.40132908       0.00000000
Si       0.86366322      -3.68186580      -0.23021204       0.00000000
Si       1.77389955       1.60041105      -3.02039157       0.00000000
