10
Lattice="16.28999089631971 0.0 0.0 0.0 16.28999089631971 0.0 0.0 0.0 34.45770212530097" Properties=species:S:1:pos:R:3:initial_magmoms:R:1 pbc="T T T"
Si      -1.35803214       1.35509994      -1.35935711       0.00000000
Si       1.35710361      -1.35917244      -1.35877133       0.00000000
Si      -1.34162811      -1.38333051       1.35225882       0.00000000
Si       1.35213516       1.37766159       1.35339592       0.00000000
Si       2.60345151      -0.03056004       2.71140918       0.00000000
Si      -2.71103067       2.71425609      -0.00055132       0.00000000
Si      -2.71107954      -2.71521720      -0.00223975       0.00000000
Si       2.71450044       2.71395167       0.00165397       0.00000000
Si       0.00146610       2.71348348      -2.71640555       0.00000000
Si      -2.71386513      -0.00158013      -2.71654338       0.00000000
