10
Lattice="16.28999089631971 0.0 0.0 0.0 16.28999089631971 0.0 0.0 0.0 34.45770212530097" Properties=species:S:1:pos:R:3:initial_magmoms:R:1 pbc="T T T"
Si       1.43531190      -1.22697909      -1.34050873       0.00000000
Si       1.64845026       1.06186365       1.24926469       0.00000000
Si      -1.30407966       1.50913818      -1.31235678       0.00000000
Si      -1.08232389      -1.68461406       1.39894903       0.00000000
Si       2.65885380      -2.54927097       0.25705460       0.00000000
Si       0.06586047      -2.55886578      -2.69500730       0.00000000
Si       3.48136848      -0.63570096       1.32924106       0.00000000
Si      -2.65132782       0.15591159      -2.69307767       0.00000000
Si      -2.74533741      -2.60863173       0.03435435       0.00000000
Si       2.77694001       0.15635142      -2.69276755       0.00000000
