10
Lattice="16.28999089631971 0.0 0.0 0.0 16.28999089631971 0.0 0.0 0.0 34.45770212530097" Properties=species:S:1:pos:R:3:initial_magmoms:R:1 pbc="T T T"
Si      -1.64845026      -1.06186365      -1.24926469       0.00000000
Si       1.08061344       1.73786607      -1.13796625       0.00000000
Si      -0.67776174       1.45406169       1.90251417       0.00000000
Si       1.83291822      -1.69756461       0.07997637       0.00000000
Si       1.43545851      -1.76233365       2.38940177       0.00000000
Si       1.51211925       2.22082940       2.15529601       0.00000000
Si      -0.21313836      -2.28884274      -2.58977342       0.00000000
Si       2.48062491       0.47214936      -2.58863632       0.00000000
Si      -1.01299365      -1.85937318       3.09919638       0.00000000
Si      -2.73077415      -2.74647771       0.14968434       0.00000000
