10
Lattice="16.28999089631971 0.0 0.0 0.0 16.28999089631971 0.0 0.0 0.0 34.45770212530097" Properties=species:S:1:pos:R:3:initial_magmoms:R:1 pbc="T T T"
Si      -1.69178166       1.52570511       0.62396042       0.00000000
Si       1.20027978       0.58609791      -1.95909375       0.00000000
Si       1.91879910       0.66280752       1.22555778       0.00000000
Si      -0.83986353      -2.21983830       0.17428715       0.00000000
Si      -3.33829341      -0.16987212       0.12291069       0.00000000
Si       0.86698638       2.91097317      -1.42906508       0.00000000
Si       3.13642773      -0.88852176      -1.63412298       0.00000000
Si       0.55337130      -3.09076686       1.86681597       0.00000000
Si       2.20252203       2.89701264       0.49777624       0.00000000
Si      -1.44376641       3.24733235      -0.98552529       0.00000000
