10
Lattice="16.28999089631971 0.0 0.0 0.0 16.28999089631971 0.0 0.0 0.0 34.45770212530097" Properties=species:S:1:pos:R:3:initial_magmoms:R:1 pbc="T T T"
Si      -1.33419987      -1.34499744       1.36234804       0.00000000
Si       1.28269089      -1.44187407      -1.36201724       0.00000000
Si       1.37924172       1.36887977       1.35969479       0.00000000
Si      -1.36083402       1.31011359      -1.44540493       0.00000000
Si       0.44999496       2.10159908      -2.90091428       0.00000000
Si       2.35634850       0.13721942      -2.80774060       0.00000000
Si      -2.68247430      -2.70876366      -0.03154949       0.00000000
Si      -2.69495244       0.01022754       2.71939648       0.00000000
Si      -2.67972129       2.73840776      -0.01178109       0.00000000
Si       0.02057427      -2.70275265       2.72139503       0.00000000
