10
Lattice="16.28999089631971 0.0 0.0 0.0 16.28999089631971 0.0 0.0 0.0 34.45770212530097" Properties=species:S:1:pos:R:3:initial_magmoms:R:1 pbc="T T T"
Si       1.35819504      -1.34725142      -1.49829064       0.00000000
Si      -1.35422028       1.35112518      -1.52795874       0.00000000
Si       0.76237200       1.73778462       1.57109981       0.00000000
Si      -1.94352732      -0.97575471       1.24344133       0.00000000
Si      -1.13989275       3.29408235       1.22197417       0.00000000
Si      -2.85506685       2.46915675      -0.15523203       0.00000000
Si       2.67631668       2.69707014       0.04903334       0.00000000
Si       2.77451280      -2.77064297      -0.03876494       0.00000000
Si      -2.77956270      -2.76960041      -0.08018312       0.00000000
Si      -0.01718595      -2.69902704      -2.88259514       0.00000000
