10
Lattice="16.28999089631971 0.0 0.0 0.0 16.28999089631971 0.0 0.0 0.0 34.45770212530097" Properties=species:S:1:pos:R:3:initial_magmoms:R:1 pbc="T T T"
Si       0.68286377       1.89573246       1.28217181       0.00000000
Si      -2.22911124       0.95294871      -0.28148513       0.00000000
Si       1.19911016       0.21983355      -2.21856039       0.00000000
Si      -0.21559652      -2.31980514       1.04878967       0.00000000
Si      -1.75057620      -2.80327605      -0.64908010       0.00000000
Si      -3.35227416      -1.03314438      -0.70879533       0.00000000
Si       2.13278780      -0.77237406       2.84841308       0.00000000
Si      -0.22112698      -0.96062130      -3.62260916       0.00000000
Si      -2.12724987       2.08816623      -2.31455960       0.00000000
Si      -1.18746641       2.16482697       2.87727329       0.00000000
