10
Lattice="16.28999089631971 0.0 0.0 0.0 16.28999089631971 0.0 0.0 0.0 34.45770212530097" Properties=species:S:1:pos:R:3:initial_magmoms:R:1 pbc="T T T"
Si       0.79891047       1.71608634       1.34915762       0.00000000
Si       1.84011840      -1.34918667      -0.44770917       0.00000000
Si      -1.76000418      -1.13968098       1.06574286       0.00000000
Si      -0.52893630       0.34573896      -2.29605581       0.00000000
Si       0.29667348      -2.83869540      -1.42258703       0.00000000
Si      -0.51885279       3.33917307       0.09596475       0.00000000
Si      -0.95553882      -3.34225188       0.59029522       0.00000000
Si       1.53981225       1.37034738      -2.88242285       0.00000000
Si       0.28575918       0.66837870       3.48763827       0.00000000
Si       3.29343075       0.26347446      -1.46693411       0.00000000
