10
Lattice="16.28999089631971 0.0 0.0 0.0 16.28999089631971 0.0 0.0 0.0 34.45770212530097" Properties=species:S:1:pos:R:3:initial_magmoms:R:1 pbc="T T T"
Si      -1.35710361       1.35666378       1.36032192       0.00000000
Si       1.35668007      -1.35829278       1.36087325       0.00000000
Si       1.35237951       1.37034738      -1.36230324       0.00000000
Si      -1.37784078      -1.36347300      -1.36539755       0.00000000
Si       0.03780909      -2.66603769      -2.75425047       0.00000000
Si       2.71476108       2.71314837       0.00516866       0.00000000
Si      -2.71547784       2.71246419      -0.00261879       0.00000000
Si       2.71259451      -2.71585251       0.00285999       0.00000000
Si       2.71404432      -0.00053757       2.71723254       0.00000000
Si      -0.00055386       2.71397916       2.71774940       0.00000000
