10
Lattice="16.28999089631971 0.0 0.0 0.0 16.28999089631971 0.0 0.0 0.0 34.45770212530097" Properties=species:S:1:pos:R:3:initial_magmoms:R:1 pbc="T T T"
Si      -0.67121316       0.44787726       2.19309614       0.00000000
Si      -0.86107311       1.45108062      -1.62792059       0.00000000
Si       2.22342210       0.72366696      -0.19892443       0.00000000
Si      -0.02137248      -2.22487191      -0.84100961       0.00000000
Si       0.86578092       2.98489815      -1.61410304       0.00000000
Si      -2.09385144      -2.90688534       0.05788897       0.00000000
Si       3.69616842      -1.01338461       0.34705817       0.00000000
Si       2.85136902       0.76488066      -2.58391561       0.00000000
Si      -2.87085186      -0.43111485       2.66709655       0.00000000
Si       0.33967908      -1.05114483       3.81857023       0.00000000
