10
Lattice="16.28999089631971 0.0 0.0 0.0 16.28999089631971 0.0 0.0 0.0 34.45770212530097" Properties=species:S:1:pos:R:3:initial_magmoms:R:1 pbc="T T T"
Si      -1.35410625      -1.34978940      -1.37069370       0.00000000
Si       1.35715248       1.36822968      -1.37589681       0.00000000
Si      -1.46970009       1.33584516       1.33723525       0.00000000
Si       1.30087053      -1.44124146       1.45118694       0.00000000
Si      -0.12717603       2.71831230       2.62336970       0.00000000
Si       2.70189198       2.71347417      -0.02291438       0.00000000
Si       2.70158247      -2.71850778      -0.00592673       0.00000000
Si      -2.73227283      -2.70899442       0.02167391       0.00000000
Si       0.00079821      -2.70905958      -2.73346212       0.00000000
Si       2.71432125       0.00803097      -2.73287634       0.00000000
