10
Lattice="16.28999089631971 0.0 0.0 0.0 16.28999089631971 0.0 0.0 0.0 34.45770212530097" Properties=species:S:1:pos:R:3:initial_magmoms:R:1 pbc="T T T"
Si       0.70951095      -1.53502299       1.65441858       0.00000000
Si      -2.33728920      -0.49177881      -0.13655595       0.00000000
Si       0.57422250       1.98581616       1.21746021       0.00000000
Si       1.19946528      -0.83482992      -1.94248513       0.00000000
Si       1.24222653      -3.15921744      -1.19899087       0.00000000
Si       2.54578491       1.11389391       2.31800538       0.00000000
Si      -1.01734308      -3.06884052       1.64060103       0.00000000
Si       1.29697722       3.41026263      -0.48323508       0.00000000
Si      -2.48798799      -2.05760619      -1.84462520       0.00000000
Si       3.25769049       0.30999870      -1.79100898       0.00000000
