10
Lattice="16.28999089631971 0.0 0.0 0.0 16.28999089631971 0.0 0.0 0.0 34.45770212530097" Properties=species:S:1:pos:R:3:initial_magmoms:R:1 pbc="T T T"
Si       1.35523467      -1.35499450      -1.35608362       0.00000000
Si      -1.35785084      -1.35639544       1.35680724       0.00000000
Si       1.35698910       1.35865628       1.35684169       0.00000000
Si      -1.35472316       1.35658908      -1.36139011       0.00000000
Si       0.02132572       2.71210441      -2.70692968       0.00000000
Si       0.00878242      -2.69808871      -2.72319028       0.00000000
Si       2.71402104      -2.71206553      -0.00192963       0.00000000
Si      -0.00102114      -2.71354792       2.71395905       0.00000000
Si       2.71429797       0.00157234       2.71392459       0.00000000
Si      -2.71676264      -2.71204924      -0.00017229       0.00000000
