10
Lattice="16.28999089631971 0.0 0.0 0.0 16.28999089631971 0.0 0.0 0.0 34.45770212530097" Properties=species:S:1:pos:R:3:initial_magmoms:R:1 pbc="T T T"
Si       1.35472527      -1.35971815      -1.35980506       0.00000000
Si      -1.35940050       1.35457866      -1.36049421       0.00000000
Si       1.34522820       1.33877736       1.39670928       0.00000000
Si      -1.34187246      -1.36477946       1.38478691       0.00000000
Si      -2.71445157       2.71192662      -0.00382481       0.00000000
Si       2.71355872      -2.71315556       0.00013783       0.00000000
Si       2.71513312       2.71184517       0.00527203       0.00000000
Si      -0.00087966       2.71313208      -2.71716362       0.00000000
Si       2.71420431      -0.00193851      -2.71768049       0.00000000
Si      -2.71575477      -0.00184077      -2.71743928       0.00000000
