10
Lattice="16.28999089631971 0.0 0.0 0.0 16.28999089631971 0.0 0.0 0.0 34.45770212530097" Properties=species:S:1:pos:R:3:initial_magmoms:R:1 pbc="T T T"
Si      -0.05637969       2.33541585      -0.25777821       0.00000000
Si      -2.30213538      -0.48794903       0.26649602       0.00000000
Si       0.79377912      -0.73108705       2.14109943       0.00000000
Si       0.93291201      -1.54640060      -1.68808377       0.00000000
Si      -2.12571468      -2.80568276       0.17094476       0.00000000
Si      -1.76132367       2.23228386      -2.13251946       0.00000000
Si      -2.77285122       0.37548450       2.38461215       0.00000000
Si       2.38218444      -0.06407509      -2.81405873       0.00000000
Si       2.19015792       3.04824996      -0.06192053       0.00000000
Si      -1.14355800      -0.90486877       3.50624544       0.00000000
