10
Lattice="16.28999089631971 0.0 0.0 0.0 16.28999089631971 0.0 0.0 0.0 34.45770212530097" Properties=species:S:1:pos:R:3:initial_magmoms:R:1 pbc="T T T"
Si      -1.53197676      -0.75306715       1.54312014       0.00000000
Si       1.12316292       1.98609309       0.42731020       0.00000000
Si      -0.80389521       0.38700153      -2.18396484       0.00000000
Si       1.60169796      -1.77013167       0.05971523       0.00000000
Si      -1.78020378      -2.74633829       0.15443951       0.00000000
Si      -0.14020803      -0.10249668       3.48705249       0.00000000
Si       1.14373719       1.33561710      -3.09647422       0.00000000
Si       3.35227416       1.03314438       0.70879533       0.00000000
Si       1.22502429       3.12131061      -1.60576427       0.00000000
Si      -3.15766989       0.91991259       1.90968138       0.00000000
