10
Lattice="16.28999089631971 0.0 0.0 0.0 16.28999089631971 0.0 0.0 0.0 34.45770212530097" Properties=species:S:1:pos:R:3:initial_magmoms:R:1 pbc="T T T"
Si       0.90117976       1.71361026       1.28327446       0.00000000
Si       1.41507387      -1.27306350      -1.33930271       0.00000000
Si      -1.34571690       1.43742960      -1.33630489       0.00000000
Si      -0.76476663      -1.81636758       1.41610898       0.00000000
Si      -0.52422849      -0.40138560       3.29560539       0.00000000
Si       0.02643604      -2.62529640      -2.69810850       0.00000000
Si      -2.71244790      -2.65759947       0.22873035       0.00000000
Si      -2.68907175       0.09312993      -2.70575811       0.00000000
Si       2.64726251       2.75735943       0.02256981       0.00000000
Si       2.74065308       0.09029547      -2.71003087       0.00000000
