10
Lattice="16.28999089631971 0.0 0.0 0.0 16.28999089631971 0.0 0.0 0.0 34.45770212530097" Properties=species:S:1:pos:R:3:initial_magmoms:R:1 pbc="T T T"
Si       1.94768127       0.84123189       1.18737862       0.00000000
Si       1.36897902      -1.34076474      -1.53540161       0.00000000
Si      -1.32952464       1.39072617      -1.54642808       0.00000000
Si      -1.91394468      -0.95928552       1.52206647       0.00000000
Si      -2.67631668      -2.69707014      -0.04903334       0.00000000
Si       2.71244790       2.65759947      -0.22873035       0.00000000
Si      -2.90840031       2.53063521      -0.10706014       0.00000000
Si       2.78885812      -2.75260275      -0.06419473       0.00000000
Si       0.02375082      -2.67954210      -2.93211089       0.00000000
Si       3.69553052      -0.84522294       1.19302969       0.00000000
