10
Lattice="16.28999089631971 0.0 0.0 0.0 16.28999089631971 0.0 0.0 0.0 34.45770212530097" Properties=species:S:1:pos:R:3:initial_magmoms:R:1 pbc="T T T"
Si      -2.27501253      -0.43383528       0.49264204       0.00000000
Si       0.31063401      -1.77938928      -1.54928807       0.00000000
Si      -0.04276125       2.32438752      -0.74349425       0.00000000
Si       1.45287252      -0.59582304       1.88359688       0.00000000
Si      -0.53271558       1.62419445       2.85340945       0.00000000
Si      -1.24222653       3.15921744       1.19899087       0.00000000
Si      -2.25956961       0.09037692       2.83959190       0.00000000
Si       0.55524465      -3.69194931      -0.12459912       0.00000000
Si      -0.78310917       2.24119449      -3.02897154       0.00000000
Si       2.16026577      -2.89996209       1.35201761       0.00000000
