10
Lattice="16.28999089631971 0.0 0.0 0.0 16.28999089631971 0.0 0.0 0.0 34.45770212530097" Properties=species:S:1:pos:R:3:initial_magmoms:R:1 pbc="T T T"
Si      -1.60502112      -0.79198722      -1.47661673       0.00000000
Si       0.05611905      -1.25981973       1.97184311       0.00000000
Si       2.03953473      -0.76224168      -0.91412889       0.00000000
Si      -0.70739325       2.30413905       0.53157927       0.00000000
Si       0.13740615       0.52587378       3.46255305       0.00000000
Si      -1.84963176       1.12057281      -2.90130568       0.00000000
Si       3.53705489       0.76592322      -0.05747548       0.00000000
Si      -0.47452770      -2.62585026      -2.51934184       0.00000000
Si      -3.59525187      -1.14344397      -0.12501261       0.00000000
Si      -2.16026577       2.89996209      -1.35201761       0.00000000
