10
Lattice="16.28999089631971 0.0 0.0 0.0 16.28999089631971 0.0 0.0 0.0 34.45770212530097" Properties=species:S:1:pos:R:3:initial_magmoms:R:1 pbc="T T T"
Si      -1.41507387       1.27306350       1.33930271       0.00000000
Si       1.32557920       1.36335897      -1.37072816       0.00000000
Si      -1.38863783      -1.35223290      -1.35880578       0.00000000
Si       1.42698445      -1.36018242       1.47954564       0.00000000
Si      -2.17984050      -0.54330408       2.75541169       0.00000000
Si      -0.43199125      -2.22975891       2.76106276       0.00000000
Si       2.67753517       2.70875007       0.00358360       0.00000000
Si       2.68164025       0.00777033      -2.72415854       0.00000000
Si       2.69986876      -2.72231964       0.00237758       0.00000000
Si      -0.03213854      -2.70932022      -2.72398625       0.00000000
