10
Lattice="16.28999089631971 0.0 0.0 0.0 16.28999089631971 0.0 0.0 0.0 34.45770212530097" Properties=species:S:1:pos:R:3:initial_magmoms:R:1 pbc="T T T"
Si      -0.64596366      -2.15200674       0.66851425       0.00000000
Si      -0.23983767       1.06917786      -2.15033410       0.00000000
Si       2.32816421      -0.71762337      -0.35198562       0.00000000
Si      -1.42311069       0.81137232       1.88983373       0.00000000
Si       1.24263085      -2.46042531       2.27932845       0.00000000
Si       2.18704068      -1.16685270      -2.73294526       0.00000000
Si      -1.16989893      -0.80003448      -3.45848704       0.00000000
Si       0.20098602      -3.67230357      -0.87942997       0.00000000
Si       0.30284739      -2.53708605      -2.91250444       0.00000000
Si       3.71306834       1.25983602       0.30167735       0.00000000
