10
Lattice="16.28999089631971 0.0 0.0 0.0 16.28999089631971 0.0 0.0 0.0 34.45770212530097" Properties=species:S:1:pos:R:3:initial_magmoms:R:1 pbc="T T T"
Si       1.26859582      -1.36516716      -1.37948386       0.00000000
Si       1.37098988       1.33535646       1.36052867       0.00000000
Si      -1.34540739      -1.37800368       1.36204481       0.00000000
Si      -1.24947558       1.48269951      -1.47897364       0.00000000
Si      -2.68817580       2.67830406       0.00952411       0.00000000
Si       0.01432969       2.69597871       2.72247011       0.00000000
Si      -2.70306486      -0.01954800       2.72305589       0.00000000
Si      -2.70255987      -2.73564486      -0.02368968       0.00000000
Si       2.73032522       2.71119357      -0.02720093       0.00000000
Si       2.70862694      -2.74058073      -0.00225009       0.00000000
