10
Lattice="16.28999089631971 0.0 0.0 0.0 16.28999089631971 0.0 0.0 0.0 34.45770212530097" Properties=species:S:1:pos:R:3:initial_magmoms:R:1 pbc="T T T"
Si       1.35742941      -1.35374787       1.35808217       0.00000000
Si      -1.35769005      -1.35586557      -1.35718627       0.00000000
Si       1.35684297       1.35928647      -1.35725519       0.00000000
Si      -1.35490446       1.35927018       1.36276842       0.00000000
Si       2.71319724      -2.71261080       0.00024120       0.00000000
Si      -0.00060273      -2.71313208      -2.71451038       0.00000000
Si       2.70078426      -0.00944820       2.72753539       0.00000000
Si      -2.71507059      -2.71393029      -0.00027566       0.00000000
Si       2.71469592       0.00175932      -2.71447592       0.00000000
Si      -2.71515204       0.00143352      -2.71437254       0.00000000
