10
Lattice="16.28999089631971 0.0 0.0 0.0 16.28999089631971 0.0 0.0 0.0 34.45770212530097" Properties=species:S:1:pos:R:3:initial_magmoms:R:1 pbc="T T T"
Si      -1.34335485      -1.34429967      -1.36945322       0.00000000
Si       1.37163429       1.36761066      -1.36810937       0.00000000
Si       1.34571690      -1.43742960       1.33630489       0.00000000
Si      -1.40071194       1.27726632       1.45711366       0.00000000
Si       2.24689666       0.27618066       2.61957935       0.00000000
Si       0.57573747       2.15679600       2.79073085       0.00000000
Si      -2.69625564      -2.70430290       0.01860717       0.00000000
Si      -2.70158247       2.71850778       0.00592673       0.00000000
Si      -2.70078426       0.00944820      -2.72753539       0.00000000
Si       0.01241298      -2.70316260      -2.72729419       0.00000000
