10
Lattice="16.28999089631971 0.0 0.0 0.0 16.28999089631971 0.0 0.0 0.0 34.45770212530097" Properties=species:S:1:pos:R:3:initial_magmoms:R:1 pbc="T T T"
Si      -0.63214974       0.24247665      -2.26649108       0.00000000
Si       0.62821393      -2.28359736       0.26684059       0.00000000
Si       2.17184863       0.92753631      -0.32462619       0.00000000
Si      -1.34405532       1.04637186       1.84252328       0.00000000
Si       1.07211236      -2.10230595       2.56565302       0.00000000
Si      -0.85890654       2.61876411      -2.38891937       0.00000000
Si      -2.69037495      -0.90235197      -2.41796722       0.00000000
Si      -3.18032928      -1.60254504       1.17893648       0.00000000
Si       1.27207048      -0.40936770      -3.58091532       0.00000000
Si       2.12063939       3.23314146       0.10027197       0.00000000
