10
Lattice="16.28999089631971 0.0 0.0 0.0 16.28999089631971 0.0 0.0 0.0 34.45770212530097" Properties=species:S:1:pos:R:3:initial_magmoms:R:1 pbc="T T T"
Si      -1.34188875      -1.37223702      -1.35414021       0.00000000
Si       1.36061674      -1.35456237       1.35880578       0.00000000
Si      -1.35695700       1.36083402       1.36008072       0.00000000
Si       1.36858806       1.37479455      -1.36293727       0.00000000
Si      -2.53662993       0.06270021      -2.71642967       0.00000000
Si       0.09681147      -2.56784157      -2.84263797       0.00000000
Si      -2.71596654      -2.71186146       0.00285999       0.00000000
Si      -2.71290402       0.00153126       2.71709470       0.00000000
Si       0.00190593      -2.71336014       2.71692242       0.00000000
Si      -2.71363707       2.71782360       0.00468625       0.00000000
