10
Lattice="16.28999089631971 0.0 0.0 0.0 16.28999089631971 0.0 0.0 0.0 34.45770212530097" Properties=species:S:1:pos:R:3:initial_magmoms:R:1 pbc="T T T"
Si      -1.35668007       1.35698958      -1.35539447       0.00000000
Si       1.35891180       1.35565380       1.35697953       0.00000000
Si      -1.35594702      -1.35930276       1.35701398       0.00000000
Si       1.35695700      -1.36083402      -1.36008072       0.00000000
Si      -2.69211798       0.00542457      -2.72197047       0.00000000
Si      -0.00058644       2.68952854      -2.73009216       0.00000000
Si      -2.71182888       2.71185360      -0.00051687       0.00000000
Si       0.00138465       2.71338321       2.71420026       0.00000000
Si      -2.71388142      -0.00161271       2.71406242       0.00000000
Si       2.71676264       2.71204924       0.00017229       0.00000000
