10
Lattice="16.28999089631971 0.0 0.0 0.0 16.28999089631971 0.0 0.0 0.0 34.45770212530097" Properties=species:S:1:pos:R:3:initial_magmoms:R:1 pbc="T T T"
Si       1.34473950       1.34524449       1.35298243       0.00000000
Si      -1.35669636       1.35366642      -1.35691061       0.00000000
Si       1.35716877      -1.36019871      -1.35697953       0.00000000
Si      -1.35715248      -1.36822968       1.37589681       0.00000000
Si       2.64676662      -0.07240905       2.68370517       0.00000000
Si       0.00086337       2.71204743      -2.71468266       0.00000000
Si      -2.71580364       2.71212719       0.00337686       0.00000000
Si      -2.71440270      -0.00294849      -2.71482049       0.00000000
Si      -2.71125873      -2.71801908       0.00520312       0.00000000
Si       2.71522022      -0.00283446      -2.71475158       0.00000000
