10
Lattice="16.28999089631971 0.0 0.0 0.0 16.28999089631971 0.0 0.0 0.0 34.45770212530097" Properties=species:S:1:pos:R:3:initial_magmoms:R:1 pbc="T T T"
Si      -1.21127553      -1.05933870      -1.64287524       0.00000000
Si       2.03922197      -1.15875657       0.34361240       0.00000000
Si      -1.73511306      -0.29292678       1.61965074       0.00000000
Si       0.59734357       2.34917180      -0.28313910       0.00000000
Si      -2.59217883       1.01545344      -1.82911922       0.00000000
Si       2.28735125      -0.63372987       2.64897179       0.00000000
Si       3.37125527       0.04124628      -1.18920488       0.00000000
Si       2.96032373       2.25930150      -0.45367036       0.00000000
Si      -1.18485315      -3.43122786      -1.05492314       0.00000000
Si      -2.73131172       1.83076698       2.00006398       0.00000000
