10
Lattice="16.28999089631971 0.0 0.0 0.0 16.28999089631971 0.0 0.0 0.0 34.45770212530097" Properties=species:S:1:pos:R:3:initial_magmoms:R:1 pbc="T T T"
Si       1.21127553       1.05933870       1.64287524       0.00000000
Si       1.41925754      -0.78359787      -1.79300753       0.00000000
Si       0.02642238      -2.37188916       0.58795210       0.00000000
Si      -1.38090330       2.07479214      -0.18624398       0.00000000
Si      -2.68091046      -1.55631402      -0.68364119       0.00000000
Si      -2.90903562       0.71581518      -1.35928819       0.00000000
Si      -0.52383753       0.76641192       3.26252598       0.00000000
Si      -0.83737116      -2.92374549      -1.55783358       0.00000000
Si      -2.13628689      -2.19548475       1.60962354       0.00000000
Si       0.06836913       3.55711765      -1.31221895       0.00000000
