10
Lattice="16.28999089631971 0.0 0.0 0.0 16.28999089631971 0.0 0.0 0.0 34.45770212530097" Properties=species:S:1:pos:R:3:initial_magmoms:R:1 pbc="T T T"
Si       0.35028387       1.70051310      -1.58519301       0.00000000
Si      -1.50296427      -1.22334642      -1.37954933       0.00000000
Si       2.06753399      -1.07162136       0.78236256       0.00000000
Si      -1.27782018       1.34397387       1.61579147       0.00000000
Si       1.30299542       3.36960916      -0.25908761       0.00000000
Si       3.75317432       0.51315129       0.12318635       0.00000000
Si       1.96173044       0.96342318      -3.12180064       0.00000000
Si      -0.13217706       3.52800253       1.58350459       0.00000000
Si      -2.69149896      -2.77935093      -0.06795063       0.00000000
Si      -0.15890895      -2.26971828      -3.22207261       0.00000000
