10
Lattice="16.28999089631971 0.0 0.0 0.0 16.28999089631971 0.0 0.0 0.0 34.45770212530097" Properties=species:S:1:pos:R:3:initial_magmoms:R:1 pbc="T T T"
Si       0.78479681      -2.01189645       1.03621260       0.00000000
Si      -0.14112353      -0.44922933      -2.38095963       0.00000000
Si      -2.32816421       0.71762337       0.35198562       0.00000000
Si       1.38490412       1.97745939       0.65366297       0.00000000
Si      -1.08553337      -1.74280194       2.63131407       0.00000000
Si      -2.97412787      -1.43438337       1.02049988       0.00000000
Si       1.92902270       0.91157211       2.77107242       0.00000000
Si      -0.60326268       1.67905917      -3.13496349       0.00000000
Si      -2.56800188       1.78680123      -1.79834848       0.00000000
Si      -2.12717819      -2.95468020      -0.52744434       0.00000000
