10
Lattice="16.28999089631971 0.0 0.0 0.0 16.28999089631971 0.0 0.0 0.0 34.45770212530097" Properties=species:S:1:pos:R:3:initial_magmoms:R:1 pbc="T T T"
Si      -0.90117976      -1.71361026      -1.28327446       0.00000000
Si       1.74608275       1.04374917      -1.26070465       0.00000000
Si      -1.67115919       1.88061534       0.17115150       0.00000000
Si       2.42824279      -0.42591834       0.86254568       0.00000000
Si      -1.42540825      -2.11499586       2.01233093       0.00000000
Si      -2.24689666      -0.27618066      -2.61957935       0.00000000
Si       0.48321353       2.46208689      -2.63443063       0.00000000
Si       2.03213515      -0.56394351       3.16080678       0.00000000
Si      -1.66594639      -3.52997784       0.13283452       0.00000000
Si       3.40909627       1.96776684       0.10389003       0.00000000
