10
Lattice="16.28999089631971 0.0 0.0 0.0 16.28999089631971 0.0 0.0 0.0 34.45770212530097" Properties=species:S:1:pos:R:3:initial_magmoms:R:1 pbc="T T T"
Si      -1.35671591       1.35700587      -1.35312026       0.00000000
Si      -1.35584276      -1.35797675       1.35766868       0.00000000
Si       1.35648459      -1.35608874      -1.36066650       0.00000000
Si       1.35874890       1.35734796       1.35739302       0.00000000
Si      -2.69150615      -0.00452862      -2.70610269       0.00000000
Si      -2.71053324       2.71440270       0.00062024       0.00000000
Si      -2.71341911      -0.00060273       2.71475158       0.00000000
Si      -2.71283187      -2.71663303       0.00082699       0.00000000
Si       0.00167787       2.71474479       2.71482049       0.00000000
Si       0.00146610      -2.71506069       2.71475158       0.00000000
