10
Lattice="16.28999089631971 0.0 0.0 0.0 16.28999089631971 0.0 0.0 0.0 34.45770212530097" Properties=species:S:1:pos:R:3:initial_magmoms:R:1 pbc="T T T"
Si      -0.67618813      -0.33389613       2.29264449       0.00000000
Si      -0.16664670       2.32572330      -0.68464047       0.00000000
Si       2.33178318       0.27575712      -0.63326400       0.00000000
Si      -1.57596628      -1.67080014      -0.96364464       0.00000000
Si       1.97029179      -1.03456161      -2.58867078       0.00000000
Si      -1.89000978       2.74281246       0.77912354       0.00000000
Si      -0.72739737       1.97170902       2.71754265       0.00000000
Si      -0.41477598       1.80069660      -2.98999986       0.00000000
Si      -3.48018650      -1.01895579       0.35077960       0.00000000
Si      -0.14219541      -0.51346080      -3.65820399       0.00000000
