10
Lattice="16.28999089631971 0.0 0.0 0.0 16.28999089631971 0.0 0.0 0.0 34.45770212530097" Properties=species:S:1:pos:R:3:initial_magmoms:R:1 pbc="T T T"
Si      -1.35682970       1.35715248      -1.35715181       0.00000000
Si       1.35815360      -1.35772263      -1.35725519       0.00000000
Si      -1.35805145      -1.35736425       1.35777205       0.00000000
Si       1.35887361       1.35671265       1.35890916       0.00000000
Si       0.00102114       2.71354792      -2.71395905       0.00000000
Si      -2.71435685       2.71488189       0.00006892       0.00000000
Si       0.00183224      -2.71389771      -2.71540628       0.00000000
Si      -2.71574150       0.00149868      -2.71413134       0.00000000
Si      -2.71473152      -2.71516833      -0.00006892       0.00000000
Si      -2.71522022       0.00283446       2.71475158       0.00000000
