10
Lattice="16.28999089631971 0.0 0.0 0.0 16.28999089631971 0.0 0.0 0.0 34.45770212530097" Properties=species:S:1:pos:R:3:initial_magmoms:R:1 pbc="T T T"
Si       1.07474904       1.74093578       1.00595872       0.00000000
Si      -1.21519979       1.41675337      -1.39801867       0.00000000
Si      -1.69390913      -1.06647372       1.30498282       0.00000000
Si       1.48273209      -1.30526883      -1.37613802       0.00000000
Si       0.23439681      -1.33266861       2.99778730       0.00000000
Si       1.66460994       0.73266948       2.94565277       0.00000000
Si      -2.52937795       2.69939051       0.11253892       0.00000000
Si      -3.36698729       0.74144491       1.40432443       0.00000000
Si      -2.58092652       0.05929560      -2.75523940       0.00000000
Si      -2.64916844      -2.72864016      -0.07456651       0.00000000
