10
Lattice="16.28999089631971 0.0 0.0 0.0 16.28999089631971 0.0 0.0 0.0 34.45770212530097" Properties=species:S:1:pos:R:3:initial_magmoms:R:1 pbc="T T T"
Si       1.72336308      -0.41708916      -1.46376400       0.00000000
Si      -1.81693351      -1.38548079      -0.55077222       0.00000000
Si      -0.85031749       2.12782653       0.63498689       0.00000000
Si       1.16261241      -0.77110344       1.93841912       0.00000000
Si      -2.30472127       0.94960926       2.17690101       0.00000000
Si      -2.29910122      -0.07628607      -2.49308506       0.00000000
Si       1.89000978      -2.74281246      -0.77912354       0.00000000
Si      -0.44883415      -0.03401352       3.47502674       0.00000000
Si       1.21382166      -3.07670859       1.51352095       0.00000000
Si       1.11579821       3.22917389       1.45104911       0.00000000
