10
Lattice="16.28999089631971 0.0 0.0 0.0 16.28999089631971 0.0 0.0 0.0 34.45770212530097" Properties=species:S:1:pos:R:3:initial_magmoms:R:1 pbc="T T T"
Si       0.05120924      -2.30560515      -0.42489816       0.00000000
Si      -1.61144657       0.73708992       1.53660763       0.00000000
Si      -1.16261241       0.77110344      -1.93841912       0.00000000
Si       2.21239377      -0.07377741       0.91492142       0.00000000
Si       0.72739737      -1.97170902      -2.71754265       0.00000000
Si       0.56075067       0.35401428      -3.40218312       0.00000000
Si       1.79144388      -0.45027189       3.24498700       0.00000000
Si      -2.01292991       2.89892997      -1.30343223       0.00000000
Si      -0.65873502       2.40618598       2.86271303       0.00000000
Si      -1.96173044      -0.96342318       3.12180064       0.00000000
