10
Lattice="16.28999089631971 0.0 0.0 0.0 16.28999089631971 0.0 0.0 0.0 34.28971787722196" Properties=species:S:1:pos:R:3:initial_magmoms:R:1 pbc="T T T"
Si       0.69507801       0.52945758       2.15006938       0.00000000
Si      -0.11476305      -2.31234921       0.22322619       0.00000000
Si       1.88406882       1.15142607      -0.96463888       0.00000000
Si      -2.03669702       1.31791282       0.10770406       0.00000000
Si       1.06857513       2.85010559       1.50045031       0.00000000
Si      -1.28317796       2.85658901      -1.48381979       0.00000000
Si      -1.39655473      -1.11609306      -2.98773337       0.00000000
Si      -0.83427932       1.25784084      -3.21723458       0.00000000
Si       0.94729608       3.34525643      -0.78400055       0.00000000
Si      -1.35531171       0.42665139       3.31557754       0.00000000
