10
Lattice="16.28999089631971 0.0 0.0 0.0 16.28999089631971 0.0 0.0 0.0 34.28971787722196" Properties=species:S:1:pos:R:3:initial_magmoms:R:1 pbc="T T T"
Si      -0.59059395       1.49789808       1.76629864       0.00000000
Si       1.81141542      -1.56410064      -0.13290702       0.00000000
Si      -1.80075524      -1.24541937      -0.98648144       0.00000000
Si       1.41449328       0.80743014      -1.76564714       0.00000000
Si      -0.00801468      -3.04321635      -1.04233943       0.00000000
Si       3.40996941       0.46560078      -0.44017735       0.00000000
Si      -1.90858201       0.06260247       3.14181914       0.00000000
Si       2.69200395      -1.88902098       1.97122410       0.00000000
Si      -1.46111526       3.50028117       0.91886208       0.00000000
Si       1.40471928      -0.39561894      -3.81120140       0.00000000
