10
Lattice="16.28999089631971 0.0 0.0 0.0 16.28999089631971 0.0 0.0 0.0 34.28971787722196" Properties=species:S:1:pos:R:3:initial_magmoms:R:1 pbc="T T T"
Si       0.74806938       1.98080373      -1.15055784       0.00000000
Si       1.61898165      -1.80260483      -0.29825213       0.00000000
Si      -2.03691789      -0.95728415      -1.19914639       0.00000000
Si       1.41776757      -0.47941633       2.07326037       0.00000000
Si      -0.63641772      -1.71452480       2.34445790       0.00000000
Si       2.04538869       0.56144625      -2.65858618       0.00000000
Si      -0.68597190      -2.18789591      -2.67010753       0.00000000
Si       3.45103650      -0.81084635      -1.34686658       0.00000000
Si       0.47208420      -3.63633755      -1.18704212       0.00000000
Si       1.18441332       3.63430389       0.60031043       0.00000000
