10
Lattice="16.28999089631971 0.0 0.0 0.0 16.28999089631971 0.0 0.0 0.0 34.28971787722196" Properties=species:S:1:pos:R:3:initial_magmoms:R:1 pbc="T T T"
Si      -1.27881387       1.39834989       1.44929003       0.00000000
Si      -0.96071904      -1.78333146      -1.26649285       0.00000000
Si       1.46062656      -1.29508758       1.42889449       0.00000000
Si       0.96925500       1.90063575      -1.28154604       0.00000000
Si       0.91489527      -3.32366499      -1.14772379       0.00000000
Si      -2.65452066      -2.65808817       0.09974885       0.00000000
Si      -2.59058241       2.73843045       0.04109625       0.00000000
Si      -2.62855440       0.05953995       2.81382954       0.00000000
Si       0.08529444      -2.65862574       2.81204647       0.00000000
Si      -0.79045596       3.61595646      -1.18353599       0.00000000
