10
Lattice="16.28999089631971 0.0 0.0 0.0 16.28999089631971 0.0 0.0 0.0 34.28971787722196" Properties=species:S:1:pos:R:3:initial_magmoms:R:1 pbc="T T T"
Si       1.35568638      -1.35014778       1.35660487       0.00000000
Si      -1.35760860      -1.35418770      -1.35674203       0.00000000
Si       1.35694071       1.36014984      -1.35663916       0.00000000
Si      -1.35913986       1.36264221       1.36267415       0.00000000
Si       0.01203831      -2.68981457       2.73433221       0.00000000
Si       2.71306692      -2.71234853      -0.00013716       0.00000000
Si      -0.00017919      -2.71216120      -2.71396411       0.00000000
Si      -2.71518462       0.00272043      -2.71382695       0.00000000
Si       2.71524978       0.00250866      -2.71427271       0.00000000
Si       2.71366965       2.71661814      -0.00017145       0.00000000
