10
Lattice="16.28999089631971 0.0 0.0 0.0 16.28999089631971 0.0 0.0 0.0 34.28971787722196" Properties=species:S:1:pos:R:3:initial_magmoms:R:1 pbc="T T T"
Si       1.35506736       1.34855136      -1.37981902       0.00000000
Si      -1.36314720      -1.36225125      -1.37683581       0.00000000
Si       1.34931699      -1.25553546       1.53237406       0.00000000
Si      -1.41408603       1.31416317       1.42803039       0.00000000
Si      -2.35522449      -0.49717080       2.66482691       0.00000000
Si       2.69402391      -2.72513781       0.01440169       0.00000000
Si       2.70071910       2.72178207       0.00483485       0.00000000
Si      -2.72850984       2.70642060      -0.00054864       0.00000000
Si      -0.00373041       2.70731655      -2.73789834       0.00000000
Si       2.70966231      -0.00827532      -2.73968141       0.00000000
