10
Lattice="16.28999089631971 0.0 0.0 0.0 16.28999089631971 0.0 0.0 0.0 34.28971787722196" Properties=species:S:1:pos:R:3:initial_magmoms:R:1 pbc="T T T"
Si      -0.94113846      -1.81133397       1.23679653       0.00000000
Si      -1.31442381       1.39225743      -1.42857902       0.00000000
Si       1.19591406       1.26584703       1.63620338       0.00000000
Si       1.41408603      -1.31416317      -1.42803039       0.00000000
Si       2.52999990       2.68929981       0.08887900       0.00000000
Si       2.76340302      -2.56969863       0.10434367       0.00000000
Si      -2.80956888       2.59623504       0.02832332       0.00000000
Si      -2.66090634       0.03495834      -2.80376893       0.00000000
Si       0.05093883      -2.67641442      -2.80486620       0.00000000
Si      -3.01431789      -1.04068665       2.24052571       0.00000000
