10
Lattice="16.28999089631971 0.0 0.0 0.0 16.28999089631971 0.0 0.0 0.0 34.28971787722196" Properties=species:S:1:pos:R:3:initial_magmoms:R:1 pbc="T T T"
Si       0.35821710       2.12742513       0.90137432       0.00000000
Si      -1.67503554      -0.18358830      -1.65790879       0.00000000
Si       2.18061198      -0.29165616      -0.92839463       0.00000000
Si      -0.35435637      -1.68311538       1.72453374       0.00000000
Si      -0.34583670       0.84150882      -3.32034382       0.00000000
Si      -1.98386136      -2.49476463      -1.36576023       0.00000000
Si       3.36657285      -0.11692962       1.11630239       0.00000000
Si       2.13600996       1.58819355       2.38173085       0.00000000
Si       1.52928891      -1.16515854      -3.10157529       0.00000000
Si       0.20281050      -3.04303716      -2.00632680       0.00000000
