10
Lattice="16.28999089631971 0.0 0.0 0.0 16.28999089631971 0.0 0.0 0.0 34.28971787722196" Properties=species:S:1:pos:R:3:initial_magmoms:R:1 pbc="T T T"
Si      -1.93834710      -0.93770127      -0.91327286       0.00000000
Si       1.88387334      -1.20088251      -0.80810623       0.00000000
Si       0.45849834       2.20594293      -0.84287603       0.00000000
Si      -0.54744174      -0.10712304       2.34641242       0.00000000
Si      -2.43449163      -2.95699338       0.34286308       0.00000000
Si       2.87397954       0.05385474      -2.55876876       0.00000000
Si       1.73754027       3.34941948       0.86557583       0.00000000
Si      -1.99809882       1.61121132       2.89916298       0.00000000
Si       1.57742586       1.95352938      -3.04143110       0.00000000
Si       1.25900523       0.57788775       3.69362189       0.00000000
