10
Lattice="16.28999089631971 0.0 0.0 0.0 16.28999089631971 0.0 0.0 0.0 34.28971787722196" Properties=species:S:1:pos:R:3:initial_magmoms:R:1 pbc="T T T"
Si       1.35729909      -1.35731538      -1.35708492       0.00000000
Si      -1.35765747      -1.35767376       1.35715350       0.00000000
Si      -1.35786924       1.35777150      -1.35715350       0.00000000
Si       1.35783666       1.35690813       1.35845651       0.00000000
Si      -0.00060273      -2.71515204      -2.71444416       0.00000000
Si       2.71450044      -2.71515204       0.00020574       0.00000000
Si      -2.71456560      -2.71510317       0.00054864       0.00000000
Si       0.00048870       2.71437012      -2.71550715       0.00000000
Si       2.71477737       2.71536381       0.00017145       0.00000000
Si      -2.71516833       2.71518462      -0.00006858       0.00000000
