10
Lattice="16.28999089631971 0.0 0.0 0.0 16.28999089631971 0.0 0.0 0.0 34.28971787722196" Properties=species:S:1:pos:R:3:initial_magmoms:R:1 pbc="T T T"
Si       1.89236043      -0.90780912       1.07131425       0.00000000
Si      -1.19591406      -1.26584703      -1.63620338       0.00000000
Si       1.33408584       1.42345278      -1.54732438       0.00000000
Si      -1.31952258       0.10687869       2.17177479       0.00000000
Si       2.67222789       2.53436562       0.05236043       0.00000000
Si      -2.13705252      -3.07718100      -0.39940686       0.00000000
Si       3.09765753       1.09143000       1.94974874       0.00000000
Si      -2.40130890      -2.13091119       2.19423456       0.00000000
Si       3.10047570      -2.35602270      -0.33439352       0.00000000
Si      -2.51033787       0.12641040      -3.06478241       0.00000000
