10
Lattice="16.28999089631971 0.0 0.0 0.0 16.28999089631971 0.0 0.0 0.0 34.28971787722196" Properties=species:S:1:pos:R:3:initial_magmoms:R:1 pbc="T T T"
Si      -1.82693979       1.41661098      -0.50728237       0.00000000
Si      -0.45849834      -2.20594293       0.84287603       0.00000000
Si       1.27904193       1.14347655       1.70845186       0.00000000
Si       1.11892752      -0.25241355      -2.19855507       0.00000000
Si      -0.70626924       3.27705930      -1.38736276       0.00000000
Si       2.41548120      -2.15208819      -1.71589273       0.00000000
Si       1.42537500      -3.40682544       0.03476979       0.00000000
Si       2.68781742       2.68283268       0.59475549       0.00000000
Si      -2.39684544      -3.14364420      -0.07039683       0.00000000
Si      -0.14191848       2.65127895       2.94185370       0.00000000
