10
Lattice="16.28999089631971 0.0 0.0 0.0 16.28999089631971 0.0 0.0 0.0 34.28971787722196" Properties=species:S:1:pos:R:3:initial_magmoms:R:1 pbc="T T T"
Si       0.88058853      -0.32492034       2.10413112       0.00000000
Si      -1.81141542       1.56410064       0.13290702       0.00000000
Si      -1.81943010      -1.47911571      -0.90943241       0.00000000
Si       1.59855399       2.02970142      -0.30727033       0.00000000
Si      -0.39692214       2.37153078      -1.63274012       0.00000000
Si      -0.91953792      -1.20244635       3.32876336       0.00000000
Si      -3.61217066       0.31868127      -0.85357442       0.00000000
Si       3.18383163      -2.15371719      -0.40808216       0.00000000
Si      -0.40669614       1.16848170      -3.67829438       0.00000000
Si       2.64029949      -2.04024105       2.00612107       0.00000000
