10
Lattice="16.28999089631971 0.0 0.0 0.0 16.28999089631971 0.0 0.0 0.0 34.28971787722196" Properties=species:S:1:pos:R:3:initial_magmoms:R:1 pbc="T T T"
Si       1.35876519      -1.35705474       1.35965665       0.00000000
Si      -1.35936792       1.35881379       1.35993097       0.00000000
Si      -1.35754344      -1.34941473      -1.37225127       0.00000000
Si       1.34553771       1.37103156      -1.36439892       0.00000000
Si       2.63088387       0.00016290      -2.77521929       0.00000000
Si       0.00035838      -2.71425609       2.71756453       0.00000000
Si      -2.71863810      -2.71360449       0.00044577       0.00000000
Si      -2.71546155       0.00120546       2.71732450       0.00000000
Si       2.71505430       0.00136836       2.71821603       0.00000000
Si       0.00001629       2.71591834       2.71766740       0.00000000
