10
Lattice="16.28999089631971 0.0 0.0 0.0 16.28999089631971 0.0 0.0 0.0 34.28971787722196" Properties=species:S:1:pos:R:3:initial_magmoms:R:1 pbc="T T T"
Si       1.35609363       1.35760833      -1.35739353       0.00000000
Si      -1.35795069      -1.35690813      -1.35650200       0.00000000
Si      -1.35694071       1.35701235       1.35756498       0.00000000
Si       1.35751086      -1.35751086       1.35790788       0.00000000
Si      -0.00104256       2.71316533       2.71440987       0.00000000
Si      -2.71403617       2.71470636      -0.00010287       0.00000000
Si      -2.71475945       0.00004887      -2.71406698       0.00000000
Si       2.71487511      -0.00118917       2.71461561       0.00000000
Si      -2.71479366      -2.71508688       0.00024003       0.00000000
Si       2.71547784       2.71471288       0.00034290       0.00000000
