10
Lattice="16.28999089631971 0.0 0.0 0.0 16.28999089631971 0.0 0.0 0.0 34.28971787722196" Properties=species:S:1:pos:R:3:initial_magmoms:R:1 pbc="T T T"
Si       1.36404315       1.32537069       1.36500585       0.00000000
Si      -1.35980775       1.35330804      -1.35962236       0.00000000
Si       1.35610992      -1.36156707      -1.36030816       0.00000000
Si      -1.37966526      -1.35526284       1.38283652       0.00000000
Si       0.05866029       2.71926411       2.68612084       0.00000000
Si       2.70870120      -2.71454931      -0.00065151       0.00000000
Si      -2.71730232       2.70916837       0.00397761       0.00000000
Si      -0.00149868       2.71219167      -2.71622723       0.00000000
Si       2.71684620       2.71252798       0.00092582       0.00000000
Si       2.71301805      -0.00278559      -2.71660442       0.00000000
