10
Lattice="16.28999089631971 0.0 0.0 0.0 16.28999089631971 0.0 0.0 0.0 34.28971787722196" Properties=species:S:1:pos:R:3:initial_magmoms:R:1 pbc="T T T"
Si      -1.35736425      -1.35632169      -1.35670774       0.00000000
Si       1.35980775      -1.35330804       1.35962236       0.00000000
Si       1.35830907       1.35888363      -1.35660487       0.00000000
Si      -1.35749457       1.35586033       1.36359997       0.00000000
Si       0.00094482      -2.71427238      -2.71437558       0.00000000
Si       2.71564074       0.00135207      -2.71372408       0.00000000
Si      -2.71487511       0.00118917      -2.71461561       0.00000000
Si       2.71384884       2.71571472      -0.00044577       0.00000000
Si       0.00060273       2.71590205      -2.71427271       0.00000000
Si      -2.71591767       2.71435450      -0.00020574       0.00000000
