10
Lattice="16.28999089631971 0.0 0.0 0.0 16.28999089631971 0.0 0.0 0.0 34.28971787722196" Properties=species:S:1:pos:R:3:initial_magmoms:R:1 pbc="T T T"
Si      -2.06526249      -1.04744700       0.06309312       0.00000000
Si       0.00801468       2.10973419      -1.12021142       0.00000000
Si       0.64145133       0.11942199       2.29844107       0.00000000
Si       1.42096041      -1.50780240      -1.23340184       0.00000000
Si       2.72078838      -0.92561409       2.02714067       0.00000000
Si       2.82973590       0.03155373      -2.34709821       0.00000000
Si       1.17288000       1.52528157      -3.13476776       0.00000000
Si      -1.61642412       3.34057401       0.31035641       0.00000000
Si       2.48627754      -2.73911463       0.52871346       0.00000000
Si      -3.34070433      -0.77468724      -1.84598799       0.00000000
