10
Lattice="16.28999089631971 0.0 0.0 0.0 16.28999089631971 0.0 0.0 0.0 34.28971787722196" Properties=species:S:1:pos:R:3:initial_magmoms:R:1 pbc="T T T"
Si      -0.00977400      -1.20304908      -2.04555426       0.00000000
Si      -1.41449328      -0.80743014       1.76564714       0.00000000
Si      -0.34826391       2.11313880      -1.09850602       0.00000000
Si       1.99547613      -0.34182936       1.32546979       0.00000000
Si       0.39692214      -2.37153078       1.63274012       0.00000000
Si       1.52570511       2.05190469      -2.50980301       0.00000000
Si      -2.37456072      -1.20914154      -2.43728022       0.00000000
Si       1.25810928       0.00592956      -3.62284788       0.00000000
Si      -3.21524852      -2.05284951       0.77916569       0.00000000
Si       3.91450329      -0.35168481      -0.05664665       0.00000000
