10
Lattice="16.28999089631971 0.0 0.0 0.0 16.28999089631971 0.0 0.0 0.0 34.28971787722196" Properties=species:S:1:pos:R:3:initial_magmoms:R:1 pbc="T T T"
Si       1.35553977       1.35683109       1.35615910       0.00000000
Si       1.35733167      -1.35753156      -1.35711921       0.00000000
Si      -1.35770634       1.35701842      -1.35766785       0.00000000
Si      -1.35830907      -1.35888363       1.35660487       0.00000000
Si       0.00149868      -2.71219167       2.71622723       0.00000000
Si       2.71458189       2.71456838      -0.00027432       0.00000000
Si       2.71451673      -2.71497726      -0.00037719       0.00000000
Si       2.71507059      -0.00172474      -2.71447845       0.00000000
Si      -2.71513575       2.71499192      -0.00044577       0.00000000
Si      -0.00161271       2.71478015      -2.71540428       0.00000000
