10
Lattice="16.28999089631971 0.0 0.0 0.0 16.28999089631971 0.0 0.0 0.0 34.28971787722196" Properties=species:S:1:pos:R:3:initial_magmoms:R:1 pbc="T T T"
Si       1.35739683      -1.35747828       1.36102824       0.00000000
Si      -1.35733167       1.36011726       1.36044532       0.00000000
Si      -1.35651717      -1.37828061      -1.36292789       0.00000000
Si       1.38857589       1.35071793      -1.36437492       0.00000000
Si      -2.60827335      -0.01575243      -2.79888607       0.00000000
Si      -2.71355562      -2.71172951       0.00390903       0.00000000
Si       2.71334385       2.71453302       0.00538349       0.00000000
Si       2.71647153      -2.71546155      -0.00171449       0.00000000
Si      -2.71410948       0.00060273       2.71866180       0.00000000
Si      -0.00006516      -2.71409319       2.71873038       0.00000000
