10
Lattice="16.28999089631971 0.0 0.0 0.0 16.28999089631971 0.0 0.0 0.0 34.28971787722196" Properties=species:S:1:pos:R:3:initial_magmoms:R:1 pbc="T T T"
Si      -1.35321030       1.35817875       1.35722208       0.00000000
Si       1.36078515      -1.35547461       1.35646771       0.00000000
Si      -1.33563339      -1.35338949      -1.38448928       0.00000000
Si       1.35132066       1.36254447      -1.37411321       0.00000000
Si      -2.70901071       2.71591767      -0.00126872       0.00000000
Si      -2.71150308       0.00048870       2.71502709       0.00000000
Si      -2.71096551      -2.71692765      -0.00133730       0.00000000
Si       0.00400734      -2.71498914       2.71468419       0.00000000
Si       0.00340461       2.71604799       2.71506138       0.00000000
Si       2.71811682      -2.71559187      -0.00397761       0.00000000
