10
Lattice="16.28999089631971 0.0 0.0 0.0 16.28999089631971 0.0 0.0 0.0 34.28971787722196" Properties=species:S:1:pos:R:3:initial_magmoms:R:1 pbc="T T T"
Si       1.35672894       1.35646830       1.35646771       0.00000000
Si      -1.35720135       1.35783666      -1.35729066       0.00000000
Si       1.35830907      -1.35764118      -1.35763356       0.00000000
Si      -1.35694071      -1.36014984       1.35663916       0.00000000
Si      -0.00125433      -2.71029762       2.71324402       0.00000000
Si      -2.71454931      -2.71433754      -0.00010287       0.00000000
Si      -0.00102627      -2.71454931      -2.71506138       0.00000000
Si       0.00213399       2.71329498       2.71633010       0.00000000
Si      -2.71450044       2.71515204      -0.00020574       0.00000000
Si      -2.71510317       0.00000000      -2.71464990       0.00000000
