10
Lattice="16.28999089631971 0.0 0.0 0.0 16.28999089631971 0.0 0.0 0.0 34.28971787722196" Properties=species:S:1:pos:R:3:initial_magmoms:R:1 pbc="T T T"
Si      -1.35211887      -1.35027810      -1.35790788       0.00000000
Si      -1.17877698       1.50299685       1.36452580       0.00000000
Si       1.36379880       1.36003581      -1.35605623       0.00000000
Si       1.20793608      -1.35404109       1.51516061       0.00000000
Si       2.13504885       0.60378885       2.74873390       0.00000000
Si       0.51922746       2.39909346       2.74900822       0.00000000
Si      -2.53936665       0.23692176       2.75212858       0.00000000
Si       0.00371412      -2.70858717      -2.71773598       0.00000000
Si      -2.71200807       0.00465894      -2.71739308       0.00000000
Si       2.71720458      -2.71332756       0.04611970       0.00000000
