10
Lattice="16.28999089631971 0.0 0.0 0.0 16.28999089631971 0.0 0.0 0.0 34.28971787722196" Properties=species:S:1:pos:R:3:initial_magmoms:R:1 pbc="T T T"
Si      -0.80870076      -1.11032640      -2.06040172       0.00000000
Si       1.71527184      -1.80880902       0.07516310       0.00000000
Si      -1.94033448      -0.87433317       1.38248817       0.00000000
Si       0.47480463       2.04700140      -1.44219205       0.00000000
Si       0.78508026       1.92103083       1.53020493       0.00000000
Si       2.05651476       0.49213719       2.81699932       0.00000000
Si      -0.68857830      -2.23686135       2.81844635       0.00000000
Si      -3.11129226      -0.86723073      -1.86769340       0.00000000
Si       3.47822451      -0.75189753       1.22439877       0.00000000
Si       1.90221588       3.29088951       0.04454237       0.00000000
