10
Lattice="16.28999089631971 0.0 0.0 0.0 16.28999089631971 0.0 0.0 0.0 34.28971787722196" Properties=species:S:1:pos:R:3:initial_magmoms:R:1 pbc="T T T"
Si       1.35459495      -1.35682668      -1.35986239       0.00000000
Si      -1.35879777       1.35876519      -1.35807933       0.00000000
Si      -1.35506736      -1.34855136       1.37981902       0.00000000
Si       1.34565174       1.37323071       1.38465387       0.00000000
Si       2.71448415      -2.71176372      -0.00037719       0.00000000
Si      -2.71821456      -2.71080261       0.00298321       0.00000000
Si       2.70865233       2.72062548      -0.00041148       0.00000000
Si      -0.00213399      -2.71329498      -2.71633010       0.00000000
Si       2.71349046       0.00162900      -2.71663871       0.00000000
Si      -2.71663443       0.00185706      -2.71653584       0.00000000
