10
Lattice="16.28999089631971 0.0 0.0 0.0 16.28999089631971 0.0 0.0 0.0 34.28971787722196" Properties=species:S:1:pos:R:3:initial_magmoms:R:1 pbc="T T T"
Si       1.22075631       1.77691320      -0.82219931       0.00000000
Si      -1.32194979      -0.55561932      -1.84022732       0.00000000
Si       1.72253718      -1.66630410       0.06827087       0.00000000
Si      -1.36212093       0.80599662       1.80425738       0.00000000
Si       2.54783745       1.88230950       1.18570482       0.00000000
Si       0.54307602      -3.62041992       0.41507727       0.00000000
Si       0.22796226      -1.68733449      -3.30083296       0.00000000
Si      -2.93101083      -2.12924961      -0.98905318       0.00000000
Si      -0.26538039       3.45592350      -1.52599617       0.00000000
Si       2.51659323      -1.80046854      -2.19159425       0.00000000
