10
Lattice="16.28999089631971 0.0 0.0 0.0 16.28999089631971 0.0 0.0 0.0 34.28971787722196" Properties=species:S:1:pos:R:3:initial_magmoms:R:1 pbc="T T T"
Si      -1.17946116      -1.95411582       0.34680640       0.00000000
Si      -1.72253718       1.66630410      -0.06827087       0.00000000
Si       0.79405605      -0.13416444      -2.25986512       0.00000000
Si       2.02147497      -0.09927126       1.35759927       0.00000000
Si       0.34717248      -3.41531253      -0.67763378       0.00000000
Si      -0.50178087       3.44321730      -0.89047018       0.00000000
Si       1.63445715       1.84880097       2.64826497       0.00000000
Si       2.46850515       1.56098925      -2.16714567       0.00000000
Si      -1.49457492      -0.02103039      -3.36910382       0.00000000
Si      -0.94791510      -2.43631611       2.65844902       0.00000000
