10
Lattice="16.28999089631971 0.0 0.0 0.0 16.28999089631971 0.0 0.0 0.0 34.28971787722196" Properties=species:S:1:pos:R:3:initial_magmoms:R:1 pbc="T T T"
Si       1.34372952       1.35213516       1.38457501       0.00000000
Si      -1.36526490      -1.36630746       1.38440356       0.00000000
Si      -1.45254672       1.35032697      -1.39294170       0.00000000
Si       1.40991579      -1.40069565      -1.49150412       0.00000000
Si      -0.61703262      -2.07345636      -2.57714257       0.00000000
Si      -2.46454668      -0.41546016      -2.70977188       0.00000000
Si       2.69689095       2.70605782       0.01293409       0.00000000
Si       2.69566920      -2.73393441       0.01769350       0.00000000
Si       2.70397710      -0.00503361       2.74189996       0.00000000
Si      -0.01063737       2.70733924       2.74313439       0.00000000
