10
Lattice="16.28999089631971 0.0 0.0 0.0 16.28999089631971 0.0 0.0 0.0 34.28971787722196" Properties=species:S:1:pos:R:3:initial_magmoms:R:1 pbc="T T T"
Si      -2.05680798       1.15382137       0.12152283       0.00000000
Si       0.94892508       0.13409928       2.18367332       0.00000000
Si      -0.54247329      -2.34804060       0.07029396       0.00000000
Si       1.59653403       1.07141515      -1.59584436       0.00000000
Si      -1.85559390      -0.16936713      -2.24998968       0.00000000
Si      -0.02353905       0.82239135      -3.29860412       0.00000000
Si      -1.56566448       2.51404289       2.04624006       0.00000000
Si      -0.75149028       0.81800235       3.70322302       0.00000000
Si       3.49220133      -0.49650291      -1.60383387       0.00000000
Si       2.13527691       2.12003503       2.45545378       0.00000000
