10
Lattice="16.28999089631971 0.0 0.0 0.0 16.28999089631971 0.0 0.0 0.0 34.28971787722196" Properties=species:S:1:pos:R:3:initial_magmoms:R:1 pbc="T T T"
Si       0.69243903      -1.04917374       1.94854860       0.00000000
Si      -1.56471966       1.70083890       0.46442020       0.00000000
Si       1.97465751       1.00879083      -0.81438125       0.00000000
Si      -0.81192618      -1.56968811      -1.57914526       0.00000000
Si      -2.46878208      -0.07596027      -2.36681481       0.00000000
Si      -0.27161946       2.55807964       2.40542505       0.00000000
Si      -1.16866089       3.12632860      -1.42916195       0.00000000
Si      -3.63364740       0.50849235      -0.35225847       0.00000000
Si       2.37592908      -2.60832222       1.17987556       0.00000000
Si       0.74520234       0.69372594       3.65991508       0.00000000
