10
Lattice="16.28999089631971 0.0 0.0 0.0 16.28999089631971 0.0 0.0 0.0 34.28971787722196" Properties=species:S:1:pos:R:3:initial_magmoms:R:1 pbc="T T T"
Si       1.20601386       1.53994976       1.47757018       0.00000000
Si       0.30055050       1.65394555      -1.79990259       0.00000000
Si      -1.62826695      -1.20057300       1.51512773       0.00000000
Si       0.67592097      -1.78605189      -1.66257219       0.00000000
Si      -0.13693374      -0.19510533      -3.13411626       0.00000000
Si      -2.46161448       0.17951403      -2.86309017       0.00000000
Si       2.52117072       0.15515785       2.92100352       0.00000000
Si      -0.17572023      -2.55089997       2.90806943       0.00000000
Si       2.21773689       3.27902129       0.18283288       0.00000000
Si      -2.64026691      -2.96636013       0.19829755       0.00000000
