10
Lattice="16.28999089631971 0.0 0.0 0.0 16.28999089631971 0.0 0.0 0.0 34.28971787722196" Properties=species:S:1:pos:R:3:initial_magmoms:R:1 pbc="T T T"
Si       1.03478057       1.52777394       1.52424739       0.00000000
Si       1.41952919      -1.15682295      -1.56755533       0.00000000
Si      -1.48986711      -1.36154101       1.55682264       0.00000000
Si      -1.30432401       1.57019310      -1.55164489       0.00000000
Si       2.57708519       2.82426246       0.00006858       0.00000000
Si       2.77251632      -2.63698352      -0.12121422       0.00000000
Si      -2.80627830       0.33293502       2.60540280       0.00000000
Si       0.05181861      -2.49496092      -2.95227778       0.00000000
Si      -2.83459032      -2.66715260       0.01930512       0.00000000
Si      -2.65800672       0.21911679      -2.95155770       0.00000000
