10
Lattice="16.28999089631971 0.0 0.0 0.0 16.28999089631971 0.0 0.0 0.0 34.28971787722196" Properties=species:S:1:pos:R:3:initial_magmoms:R:1 pbc="T T T"
Si      -1.31916420      -1.87180734       0.40016123       0.00000000
Si      -0.91173501       1.59554034      -1.44592963       0.00000000
Si       0.60610203       0.83815308       2.12044305       0.00000000
Si       1.99384291      -0.98657127      -0.78904114       0.00000000
Si       2.04461559      -1.01638197       2.60543709       0.00000000
Si       2.49351423      -2.61513014       0.87202230       0.00000000
Si       0.77190165       3.24006471      -1.74188435       0.00000000
Si       3.66589250       0.70120305      -0.49822988       0.00000000
Si       1.89492840       2.78461260       1.85610347       0.00000000
Si      -2.69690724       2.73168639      -0.37485541       0.00000000
