10
Lattice="16.28999089631971 0.0 0.0 0.0 16.28999089631971 0.0 0.0 0.0 34.28971787722196" Properties=species:S:1:pos:R:3:initial_magmoms:R:1 pbc="T T T"
Si       0.75351906       1.53867619      -1.59152385       0.00000000
Si      -0.28797462       0.94352918       2.15775028       0.00000000
Si      -1.79460414      -1.51277380      -0.38857130       0.00000000
Si       2.03669702      -1.31791282      -0.10770406       0.00000000
Si       0.68138531      -0.89126143       3.20787348       0.00000000
Si       2.73177503      -0.78845524       2.04236532       0.00000000
Si       1.20241770      -0.06007198      -3.32493864       0.00000000
Si      -3.26321280      -0.14589149      -1.63661486       0.00000000
Si       2.98399310       2.02734361      -0.89170461       0.00000000
Si       3.10527215       1.53219277       1.39274625       0.00000000
