10
Lattice="16.28999089631971 0.0 0.0 0.0 16.28999089631971 0.0 0.0 0.0 34.28971787722196" Properties=species:S:1:pos:R:3:initial_magmoms:R:1 pbc="T T T"
Si      -1.20357036       1.95327200      -0.46616898       0.00000000
Si       2.17832065      -0.05389709      -0.96114133       0.00000000
Si       1.23955497      -0.13986724       2.03634922       0.00000000
Si      -0.79024419      -2.27016204      -0.44418925       0.00000000
Si       3.20048720      -0.79417401       0.98761301       0.00000000
Si       1.83694904      -0.98471814      -3.02761233       0.00000000
Si      -0.02893104      -1.70525742       3.26929810       0.00000000
Si      -3.50140518       1.25796430      -0.05602943       0.00000000
Si      -1.58421879       2.88304004       1.92670603       0.00000000
Si      -3.12603471      -2.18203314       0.08130097       0.00000000
