10
Lattice="16.28999089631971 0.0 0.0 0.0 16.28999089631971 0.0 0.0 0.0 34.28971787722196" Properties=species:S:1:pos:R:3:initial_magmoms:R:1 pbc="T T T"
Si      -1.35764118       1.35741312       1.35780501       0.00000000
Si       1.35716397      -1.35770634       1.35804504       0.00000000
Si       1.35819189       1.35967743      -1.35667345       0.00000000
Si      -1.35834165      -1.35883035      -1.35749640       0.00000000
Si      -0.00239463       2.71318095      -2.71314115       0.00000000
Si       2.71406128      -0.00097740       2.71492422       0.00000000
Si      -0.00001629       2.71471221       2.71447845       0.00000000
Si       2.71470148       2.71453302       0.00041148       0.00000000
Si      -2.71570590       0.00011403       2.71389553       0.00000000
Si      -2.71498914       2.71472850       0.00048006       0.00000000
