10
Lattice="16.28999089631971 0.0 0.0 0.0 16.28999089631971 0.0 0.0 0.0 34.28971787722196" Properties=species:S:1:pos:R:3:initial_magmoms:R:1 pbc="T T T"
Si      -1.33408584       1.38342825       1.35130710       0.00000000
Si       1.38460113      -1.31745375       1.36942237       0.00000000
Si      -1.44935388      -1.24300845      -1.42224369       0.00000000
Si       0.83219094       1.80919998      -1.31712366       0.00000000
Si       1.10884401       0.32680998      -3.12867246       0.00000000
Si       0.39322431      -2.02867515      -2.66318928       0.00000000
Si      -2.56648950      -2.61286713       0.06341887       0.00000000
Si       2.68439719      -2.63875194      -0.03526014       0.00000000
Si      -2.61983925       2.71666701      -0.15789052       0.00000000
Si       0.02971296      -2.67794568       2.71997167       0.00000000
