10
Lattice="16.28999089631971 0.0 0.0 0.0 16.28999089631971 0.0 0.0 0.0 34.28971787722196" Properties=species:S:1:pos:R:3:initial_magmoms:R:1 pbc="T T T"
Si      -1.34961021      -1.33942896       1.36791019       0.00000000
Si       1.33408584      -1.38342825      -1.35130710       0.00000000
Si       1.36632375       1.37034738       1.36520130       0.00000000
Si      -1.28575341       1.33323876      -1.50919763       0.00000000
Si       2.16627678       0.42577173      -2.66843077       0.00000000
Si       0.55390887       2.24127594      -2.89829686       0.00000000
Si      -0.11526804      -2.62643670      -2.77355079       0.00000000
Si      -2.71634121      -2.69777061      -0.00685452       0.00000000
Si       2.71868697      -2.70088200       0.01811527       0.00000000
Si       0.00843822      -2.70301599       2.72444648       0.00000000
