10
Lattice="16.28999089631971 0.0 0.0 0.0 16.28999089631971 0.0 0.0 0.0 34.28971787722196" Properties=species:S:1:pos:R:3:initial_magmoms:R:1 pbc="T T T"
Si      -1.68446745      -1.65003039       0.12334018       0.00000000
Si       1.81496664      -1.25193537      -1.05084328       0.00000000
Si       0.09047466       0.14320539       2.45555665       0.00000000
Si      -0.68176908       1.97988660      -1.32505831       0.00000000
Si       2.68776108       2.02072563      -0.56259172       0.00000000
Si      -3.65115915      -0.35715825      -0.02420855       0.00000000
Si       3.12108811       1.22919453       1.58284855       0.00000000
Si       2.26054701      -0.46312470       2.94514551       0.00000000
Si      -1.85284089      -2.97628074      -1.78868984       0.00000000
Si       3.51702633       0.20033442      -1.78416360       0.00000000
