10
Lattice="16.28999089631971 0.0 0.0 0.0 16.28999089631971 0.0 0.0 0.0 34.28971787722196" Properties=species:S:1:pos:R:3:initial_magmoms:R:1 pbc="T T T"
Si       0.60743455       0.45747207       2.21741443       0.00000000
Si      -1.28882637      -1.94645952       0.26433958       0.00000000
Si       2.18228659      -0.37095588      -0.79795647       0.00000000
Si      -0.92402811       1.67141916      -1.49311231       0.00000000
Si      -0.47844774       2.46022983       2.50287649       0.00000000
Si       1.77096409      -2.08340955      -2.35433335       0.00000000
Si       2.67843112       1.64833623      -2.05409241       0.00000000
Si      -1.12302675       0.45545211      -3.59798782       0.00000000
Si      -1.89492840      -2.78461260      -1.85610347       0.00000000
Si       3.51285379      -1.18913742       1.12076006       0.00000000
