10
Lattice="16.28999089631971 0.0 0.0 0.0 16.28999089631971 0.0 0.0 0.0 34.28971787722196" Properties=species:S:1:pos:R:3:initial_magmoms:R:1 pbc="T T T"
Si      -1.80698454       1.44032922       0.22178602       0.00000000
Si       1.70228871       1.01416653      -1.23957399       0.00000000
Si       0.92268189      -0.55557045       2.08934226       0.00000000
Si      -0.30827196      -2.03282910      -1.20250679       0.00000000
Si       1.86180039      -2.63915919      -0.71291792       0.00000000
Si      -3.09764124       0.04927725       1.59080377       0.00000000
Si       2.72234149      -0.94683996      -2.07521489       0.00000000
Si       2.46704461      -2.18432610       1.48388837       0.00000000
Si       2.30613036       1.28744757       2.50225927       0.00000000
Si       0.58762917       2.53477287      -2.65601445       0.00000000
