10
Lattice="16.28999089631971 0.0 0.0 0.0 16.28999089631971 0.0 0.0 0.0 34.28971787722196" Properties=species:S:1:pos:R:3:initial_magmoms:R:1 pbc="T T T"
Si      -1.35783666      -1.35604476      -1.35756498       0.00000000
Si       1.35714507      -1.35744570       1.35746211       0.00000000
Si       1.35916775       1.35745698      -1.35660487       0.00000000
Si      -1.35782037       1.35745536       1.35797646       0.00000000
Si       2.71452555       0.00040725      -2.71392982       0.00000000
Si       2.71278414      -0.00249237       2.71612436       0.00000000
Si      -0.00091224       2.71455487       2.71444416       0.00000000
Si       2.71449134      -2.71472850       0.00037719       0.00000000
Si       2.71524882       2.71506474       0.00003429       0.00000000
Si      -2.71570590      -2.71482624       0.00010287       0.00000000
