10
Lattice="16.28999089631971 0.0 0.0 0.0 16.28999089631971 0.0 0.0 0.0 34.28971787722196" Properties=species:S:1:pos:R:3:initial_magmoms:R:1 pbc="T T T"
Si      -1.35018036      -1.35565380      -1.38698557       0.00000000
Si       1.35949836       1.36002589      -1.38856290       0.00000000
Si       1.37164320      -1.44076905       1.35849080       0.00000000
Si      -1.52691057       1.18783422       1.58302000       0.00000000
Si      -0.33537852      -2.47648725       2.60327684       0.00000000
Si      -2.71650411       2.70697350       0.00624073       0.00000000
Si       2.72720894       2.69816387      -0.00384045       0.00000000
Si      -2.72992707      -2.71011843      -0.02801472       0.00000000
Si      -2.71130760      -0.00125433      -2.75109989       0.00000000
Si       0.00461007       2.71387069      -2.75127134       0.00000000
