10
Lattice="16.28999089631971 0.0 0.0 0.0 16.28999089631971 0.0 0.0 0.0 34.28971787722196" Properties=species:S:1:pos:R:3:initial_magmoms:R:1 pbc="T T T"
Si      -2.02028580      -0.25774038       1.30897642       0.00000000
Si       1.15135181      -2.16152010      -0.12560331       0.00000000
Si       1.54478789       1.45233236       1.33013319       0.00000000
Si      -0.73643832       1.29155332      -2.02902661       0.00000000
Si      -3.18935394       1.67514698       0.62863375       0.00000000
Si      -2.05284951       2.98602935      -0.98044645       0.00000000
Si       2.50615853      -1.86344568      -2.19173141       0.00000000
Si      -3.22110315      -2.08492452       0.40571617       0.00000000
Si       1.99771830      -2.42606970       2.26116813       0.00000000
Si       1.88372740       3.53053889       0.25727590       0.00000000
