10
Lattice="16.28999089631971 0.0 0.0 0.0 16.28999089631971 0.0 0.0 0.0 34.28971787722196" Properties=species:S:1:pos:R:3:initial_magmoms:R:1 pbc="T T T"
Si      -0.82257169      -1.58695551      -1.47805912       0.00000000
Si       2.22404438      -0.12597057      -0.82771996       0.00000000
Si      -0.70465490       2.03963832      -1.00828972       0.00000000
Si       0.24973873      -0.68976747       2.35224167       0.00000000
Si       2.76591494       2.07472698      -0.22744383       0.00000000
Si      -0.22401682      -0.41795253      -3.49055807       0.00000000
Si       2.04193847       0.78429834       3.01554234       0.00000000
Si       1.24535747       3.16386009      -1.64662746       0.00000000
Si      -0.03846721      -3.69950787      -0.80714612       0.00000000
Si      -1.30989912       1.58480523      -3.20509601       0.00000000
