10
Lattice="16.28999089631971 0.0 0.0 0.0 16.28999089631971 0.0 0.0 0.0 34.28971787722196" Properties=species:S:1:pos:R:3:initial_magmoms:R:1 pbc="T T T"
Si       0.69916680       1.73428227       1.49795886       0.00000000
Si       1.61236791      -1.81550421       0.22986609       0.00000000
Si      -1.83966228      -0.90803718       1.38909923       0.00000000
Si      -0.06214635       1.16937765      -2.21552849       0.00000000
Si      -2.39793687       1.25750655      -1.69003827       0.00000000
Si       2.16557631       0.49705677       2.90348489       0.00000000
Si      -0.55390887      -2.24127594       2.89829686       0.00000000
Si       3.48111828      -0.79231302       1.43923083       0.00000000
Si       1.96765281       3.29967245       0.26500999       0.00000000
Si       0.72809784       3.43953969      -1.77133924       0.00000000
