10
Lattice="16.28999089631971 0.0 0.0 0.0 16.28999089631971 0.0 0.0 0.0 34.28971787722196" Properties=species:S:1:pos:R:3:initial_magmoms:R:1 pbc="T T T"
Si      -0.67010544       1.18537443       1.86416468       0.00000000
Si       0.02080233       2.04638238      -1.12076006       0.00000000
Si      -1.79219974      -1.47406581      -0.66330067       0.00000000
Si       1.57529187      -2.77461054      -0.39402337       0.00000000
Si       0.72397647       1.29042864      -3.24298617       0.00000000
Si      -0.66275865      -3.54002877      -0.11154451       0.00000000
Si      -1.89630913      -0.31894191       3.13589730       0.00000000
Si      -2.04193847      -0.78429834      -3.01554234       0.00000000
Si      -3.09968645      -1.54667034       1.50415360       0.00000000
Si       2.55055788      -2.19871017       1.80984661       0.00000000
