10
Lattice="16.28999089631971 0.0 0.0 0.0 16.28999089631971 0.0 0.0 0.0 34.28971787722196" Properties=species:S:1:pos:R:3:initial_magmoms:R:1 pbc="T T T"
Si      -1.35717928      -1.32644583      -1.36154259       0.00000000
Si      -1.34831832       1.30479642       1.39226619       0.00000000
Si       1.36129340       1.38820122      -1.35982810       0.00000000
Si       1.21085525      -1.48258548       1.47836772       0.00000000
Si       2.04788432       0.24122232       2.91209021       0.00000000
Si       0.34044797       2.08401228       2.99160811       0.00000000
Si      -2.72061312      -2.66330097      -0.01117845       0.00000000
Si       2.70600032      -2.68656309       0.02146538       0.00000000
Si      -0.00181634      -2.68464087      -2.71705018       0.00000000
Si       2.71352630       0.02907765      -2.71691302       0.00000000
