10
Lattice="16.28999089631971 0.0 0.0 0.0 16.28999089631971 0.0 0.0 0.0 34.28971787722196" Properties=species:S:1:pos:R:3:initial_magmoms:R:1 pbc="T T T"
Si       1.27544184      -0.27275976       1.90908111       0.00000000
Si       1.65568302      -0.45998073      -1.60314808       0.00000000
Si      -1.64388743      -1.72449198      -0.11703087       0.00000000
Si      -1.55634334       1.84774212       0.13324992       0.00000000
Si      -0.27455166       0.65148597       3.34420947       0.00000000
Si      -1.21056040      -2.51602308       2.02840939       0.00000000
Si       0.23179041      -0.60864327      -3.45671410       0.00000000
Si      -2.65359932       1.40584329      -1.87441419       0.00000000
Si      -0.72146455       1.55584161      -3.19768943       0.00000000
Si      -2.23061318      -0.55501659       2.86405029       0.00000000
