10
Lattice="16.28999089631971 0.0 0.0 0.0 16.28999089631971 0.0 0.0 0.0 34.28971787722196" Properties=species:S:1:pos:R:3:initial_magmoms:R:1 pbc="T T T"
Si      -1.38344847      -1.84301802      -0.41291701       0.00000000
Si       1.97625719      -0.03922632      -1.27588683       0.00000000
Si      -1.43865528       1.91391210       0.03638141       0.00000000
Si       1.13556938      -0.88293429       1.94055909       0.00000000
Si       2.11092662      -2.34755190      -1.65670865       0.00000000
Si       0.16091425      -3.47177367      -1.01837090       0.00000000
Si      -2.30613036      -1.28744757      -2.50225927       0.00000000
Si       1.35221987       0.93322152      -3.26167408       0.00000000
Si       0.11167121       3.67222212      -0.16932272       0.00000000
Si      -0.56435469      -2.08049364       3.04794615       0.00000000
