10
Lattice="16.28999089631971 0.0 0.0 0.0 16.28999089631971 0.0 0.0 0.0 34.28971787722196" Properties=species:S:1:pos:R:3:initial_magmoms:R:1 pbc="T T T"
Si      -0.02080233      -2.04638238       1.12076006       0.00000000
Si       0.70317414      -0.75595374      -2.12222612       0.00000000
Si       1.81943010       1.47911571       0.90943241       0.00000000
Si      -1.79274056       1.79779698       0.05585798       0.00000000
Si      -0.69090777      -0.86100795       2.98492473       0.00000000
Si       0.00801468       3.04321635       1.04233943       0.00000000
Si      -0.81738333       0.33317937      -3.54140975       0.00000000
Si      -3.49266464       0.60023763       1.16324504       0.00000000
Si       2.42501085       0.48653343      -2.99009936       0.00000000
Si      -2.06274080      -2.83068072      -1.89478229       0.00000000
