10
Lattice="16.28999089631971 0.0 0.0 0.0 16.28999089631971 0.0 0.0 0.0 34.28971787722196" Properties=species:S:1:pos:R:3:initial_magmoms:R:1 pbc="T T T"
Si      -1.15135181       2.16152010       0.12560331       0.00000000
Si      -1.22582969      -2.10792600      -0.31231092       0.00000000
Si       1.35480672       0.29807442      -2.06612811       0.00000000
Si       0.84636650      -0.26454960       2.38677144       0.00000000
Si      -2.04098129      -1.51685964      -2.42068399       0.00000000
Si       1.79962146      -2.42903448       2.12774676       0.00000000
Si      -0.33395956      -0.48114144      -3.66547002       0.00000000
Si      -2.99855636      -1.92546171       1.18021846       0.00000000
Si      -1.08576827      -0.41454792       3.71004668       0.00000000
Si       0.39343608       3.61385246       1.45573650       0.00000000
