10
Lattice="16.28999089631971 0.0 0.0 0.0 16.28999089631971 0.0 0.0 0.0 34.28971787722196" Properties=species:S:1:pos:R:3:initial_magmoms:R:1 pbc="T T T"
Si      -0.33629076      -1.14401412      -2.05316658       0.00000000
Si       0.77491530       2.14587260      -0.68394310       0.00000000
Si      -2.37286982       0.11045469       0.26228220       0.00000000
Si       0.34547832       0.00403992       2.51487789       0.00000000
Si       1.96991712      -1.22679990       1.08431006       0.00000000
Si      -0.59129442       2.19787028       2.69551623       0.00000000
Si      -2.87254113       1.73901356      -1.39878124       0.00000000
Si       1.39755168      -2.71075374      -2.12469498       0.00000000
Si      -0.29186793       0.56040273      -3.66793888       0.00000000
Si       3.13478244      -1.81125252      -0.93024628       0.00000000
