10
Lattice="16.28999089631971 0.0 0.0 0.0 16.28999089631971 0.0 0.0 0.0 34.376317263855086" Properties=species:S:1:pos:R:3:initial_magmoms:R:1 pbc="T T T"
Si      -1.35892809       1.35873261       1.36319362       0.00000000
Si       1.35711990      -1.36005210       1.36456868       0.00000000
Si      -1.35526284      -1.37280717      -1.39081501       0.00000000
Si       1.36210464       1.36707309      -1.39401545       0.00000000
Si       2.71278999      -2.71083519       0.00735654       0.00000000
Si      -2.71549413       2.71090035       0.00532833       0.00000000
Si       2.71740006       2.71283886       0.00512207       0.00000000
Si      -2.71480995      -2.71619623       0.00433142       0.00000000
Si       2.71441899      -0.00050499       2.72143705       0.00000000
Si      -0.00060273       2.71476108       2.72119642       0.00000000
