10
Lattice="16.28999089631971 0.0 0.0 0.0 16.28999089631971 0.0 0.0 0.0 34.376317263855086" Properties=species:S:1:pos:R:3:initial_magmoms:R:1 pbc="T T T"
Si       1.21362129      -1.47767567      -1.40021694       0.00000000
Si       0.95360031      -0.33428709       2.16268408       0.00000000
Si      -2.34649305      -0.42182955      -0.17593809       0.00000000
Si       1.00232370       2.12576355      -0.60213591       0.00000000
Si       3.17096253       1.24032060      -0.08669712       0.00000000
Si      -0.50060799       1.28645388       3.20201824       0.00000000
Si       3.41228259      -1.07601966      -0.64259686       0.00000000
Si      -2.39529789      -2.00679605      -1.88495766       0.00000000
Si       0.61626699      -0.95360031      -3.67895553       0.00000000
Si       3.08794869       0.71869851       2.18819132       0.00000000
