10
Lattice="16.28999089631971 0.0 0.0 0.0 16.28999089631971 0.0 0.0 0.0 34.376317263855086" Properties=species:S:1:pos:R:3:initial_magmoms:R:1 pbc="T T T"
Si       2.13434838       1.05298560       0.02550724       0.00000000
Si      -0.95360031       0.33428709      -2.16268408       0.00000000
Si      -1.45420830       1.62074097       1.03933416       0.00000000
Si       0.33793605      -2.18888730       0.96690322       0.00000000
Si       2.21736222       1.57460769      -2.24938120       0.00000000
Si      -1.33056720       0.91717587       3.31143812       0.00000000
Si       0.04872339       2.46005064      -2.76481999       0.00000000
Si       1.81657935       3.11253030       1.02836811       0.00000000
Si       0.26002098      -1.14338858      -3.56290102       0.00000000
Si      -0.38600784       3.70038753       0.68986432       0.00000000
