10
Lattice="16.28999089631971 0.0 0.0 0.0 16.28999089631971 0.0 0.0 0.0 34.376317263855086" Properties=species:S:1:pos:R:3:initial_magmoms:R:1 pbc="T T T"
Si      -0.13493007       0.83158821      -2.22562715       0.00000000
Si       2.16863883      -0.88544295       0.51543879       0.00000000
Si      -0.51031683       1.98443151       1.27608399       0.00000000
Si      -1.00232370      -2.12576355       0.60213591       0.00000000
Si      -0.43473123       1.24033689       3.45468431       0.00000000
Si       0.21129759      -3.60343922      -0.79808103       0.00000000
Si      -0.04872339      -2.46005064       2.76481999       0.00000000
Si       2.08562499      -1.40706504       2.79032723       0.00000000
Si       0.52312077      -0.93085947      -3.63351001       0.00000000
Si       1.36023129       2.71204065      -2.30342080       0.00000000
