10
Lattice="16.28999089631971 0.0 0.0 0.0 16.28999089631971 0.0 0.0 0.0 34.376317263855086" Properties=species:S:1:pos:R:3:initial_magmoms:R:1 pbc="T T T"
Si      -0.06406857       1.17722943      -2.04879528       0.00000000
Si      -0.13690116       1.30974858       1.99970587       0.00000000
Si       2.02139352      -1.11278619      -0.72994713       0.00000000
Si      -1.90544130      -1.58472378       0.50505714       0.00000000
Si      -0.25019811      -0.70441218      -3.45248422       0.00000000
Si      -2.22881409       2.43032139       1.28615625       0.00000000
Si      -1.19475747      -3.48762384      -0.83091043       0.00000000
Si      -1.93552893      -1.73193651       2.89104990       0.00000000
Si       1.95238908      -1.29226941      -3.11398044       0.00000000
Si       2.54933613      -2.94989094       0.80248120       0.00000000
