10
Lattice="16.28999089631971 0.0 0.0 0.0 16.28999089631971 0.0 0.0 0.0 34.376317263855086" Properties=species:S:1:pos:R:3:initial_magmoms:R:1 pbc="T T T"
Si      -1.35645201      -1.35654975      -1.35594022       0.00000000
Si       1.35974259      -1.35309627       1.35930910       0.00000000
Si       1.35835794       1.35853713      -1.35618085       0.00000000
Si      -1.35503478       1.35754344       1.36054665       0.00000000
Si       2.68522731       0.00949707       2.70748026       0.00000000
Si      -2.69555517      -0.00653229       2.72487469       0.00000000
Si      -2.71438641       0.00128691      -2.71353050       0.00000000
Si       0.00122175      -2.71417464      -2.71380551       0.00000000
Si      -2.71524978       2.71427238       0.00137505       0.00000000
Si       0.00053757       2.71632492      -2.71339299       0.00000000
