10
Lattice="16.28999089631971 0.0 0.0 0.0 16.28999089631971 0.0 0.0 0.0 34.376317263855086" Properties=species:S:1:pos:R:3:initial_magmoms:R:1 pbc="T T T"
Si       0.29563092      -1.09442736      -2.04662957       0.00000000
Si      -1.27307979       1.98110835      -0.20581113       0.00000000
Si       2.19214530       0.82259613       0.41499113       0.00000000
Si      -0.29398563      -1.42547274       1.90396777       0.00000000
Si      -1.94496084       1.41628518       2.06539905       0.00000000
Si       1.87075989      -2.67856470      -1.43098376       0.00000000
Si      -2.45477268      -2.32582104       1.32850790       0.00000000
Si      -0.59867379       0.12329901       3.59047084       0.00000000
Si       0.31651470       3.72275370      -0.27796706       0.00000000
Si       3.21514101       0.88138674      -1.82524596       0.00000000
