10
Lattice="16.28999089631971 0.0 0.0 0.0 16.28999089631971 0.0 0.0 0.0 34.376317263855086" Properties=species:S:1:pos:R:3:initial_magmoms:R:1 pbc="T T T"
Si      -1.35697329       1.35711990       1.35704026       0.00000000
Si       1.35698958       1.35738054      -1.35704026       0.00000000
Si      -1.35755973      -1.35689184      -1.35700588       0.00000000
Si       1.35782037      -1.35778779       1.35721214       0.00000000
Si      -0.00215028       2.71215468       2.71342737       0.00000000
Si      -2.71463076       2.71437012      -0.00013751       0.00000000
Si       0.00081450       2.71415835      -2.71490555       0.00000000
Si      -0.00053757      -2.71632492       2.71339299       0.00000000
Si      -2.71492398      -2.71503801      -0.00013751       0.00000000
Si       2.71516833       2.71492398      -0.00020626       0.00000000
