10
Lattice="16.28999089631971 0.0 0.0 0.0 16.28999089631971 0.0 0.0 0.0 34.376317263855086" Properties=species:S:1:pos:R:3:initial_magmoms:R:1 pbc="T T T"
Si      -0.79830774      -1.69806960       1.46185371       0.00000000
Si      -2.11642938       1.04368401      -0.50639781       0.00000000
Si       1.80217899       1.48644621       0.83964202       0.00000000
Si       0.89067204      -1.25589384      -1.96876717       0.00000000
Si      -0.87149871       1.88374695      -2.66151910       0.00000000
Si      -0.92356155      -2.89067679      -2.01074067       0.00000000
Si      -2.21956137      -2.98170531       0.07153716       0.00000000
Si      -1.77888429       3.28244219       0.07212155       0.00000000
Si       0.89928945      -3.24610830       1.72318262       0.00000000
Si       2.98291077       0.21996387       2.47959953       0.00000000
