10
Lattice="16.28999089631971 0.0 0.0 0.0 16.28999089631971 0.0 0.0 0.0 34.376317263855086" Properties=species:S:1:pos:R:3:initial_magmoms:R:1 pbc="T T T"
Si       1.19206962      -0.13900257      -1.96649833       0.00000000
Si      -2.19866130      -0.40165601      -0.75762008       0.00000000
Si      -0.24132006       2.31634026       0.55589974       0.00000000
Si       0.99799056      -1.79303248       1.37835359       0.00000000
Si      -0.32433390       1.79471817       2.83078818       0.00000000
Si       0.98710884      -2.51963036      -2.25869719       0.00000000
Si      -3.41228259       1.07601966       0.64259686       0.00000000
Si       3.38237415       0.51256485      -1.37986615       0.00000000
Si       0.36518922       1.66203612      -3.28586212       0.00000000
Si      -2.43869445      -2.75943545      -0.67676694       0.00000000
