10
Lattice="16.28999089631971 0.0 0.0 0.0 16.28999089631971 0.0 0.0 0.0 34.376317263855086" Properties=species:S:1:pos:R:3:initial_magmoms:R:1 pbc="T T T"
Si       1.35726651      -1.35751086       1.35762466       0.00000000
Si      -1.35770634       1.35757602       1.35769341       0.00000000
Si       1.35643572       1.35907470      -1.35814030       0.00000000
Si      -1.35729909      -1.35954711      -1.35686838       0.00000000
Si      -0.00162900      -2.71033020      -2.71408052       0.00000000
Si      -0.00102627       2.71441899       2.71373675       0.00000000
Si       2.71373481       0.00009774       2.71480242       0.00000000
Si       2.71437012      -2.71436849      -0.00027501       0.00000000
Si       0.00298107       2.71334385      -2.71631498       0.00000000
Si      -2.71498914      -2.71475293      -0.00013751       0.00000000
