10
Lattice="16.28999089631971 0.0 0.0 0.0 16.28999089631971 0.0 0.0 0.0 34.376317263855086" Properties=species:S:1:pos:R:3:initial_magmoms:R:1 pbc="T T T"
Si       1.32548472       1.36259334       1.34817116       0.00000000
Si      -1.35974259       1.35309627      -1.35930910       0.00000000
Si       1.35547461      -1.36192545      -1.35913722       0.00000000
Si      -1.38183183      -1.36163223       1.37120331       0.00000000
Si       2.65103460      -0.01334151       2.63305549       0.00000000
Si      -2.71477737       2.71063971       0.00123755       0.00000000
Si      -0.00138465       2.71163340      -2.71548995       0.00000000
Si       2.71507059       2.71208952       0.00144381       0.00000000
Si       2.71217097      -2.71665072      -0.00075628       0.00000000
Si       2.71404432      -0.00311139      -2.71538682       0.00000000
