10
Lattice="16.28999089631971 0.0 0.0 0.0 16.28999089631971 0.0 0.0 0.0 34.376317263855086" Properties=species:S:1:pos:R:3:initial_magmoms:R:1 pbc="T T T"
Si      -1.30484529       1.42126992       1.35625992       0.00000000
Si       1.41749064      -1.32815628       1.36923355       0.00000000
Si       2.02952223       0.59727285      -1.15580909       0.00000000
Si      -0.70291350       0.96772374      -2.66242117       0.00000000
Si      -2.00922489      -1.12285341      -2.38868241       0.00000000
Si      -2.59895547      -2.55733452      -0.23479725       0.00000000
Si      -2.65525371       0.04978224       2.73282250       0.00000000
Si       0.06485049      -2.66872554       2.73667265       0.00000000
Si       2.76025905       2.67963984      -0.03607797       0.00000000
Si       0.06175539       2.76796422       2.73622575       0.00000000
