10
Lattice="16.28999089631971 0.0 0.0 0.0 16.28999089631971 0.0 0.0 0.0 34.376317263855086" Properties=species:S:1:pos:R:3:initial_magmoms:R:1 pbc="T T T"
Si      -0.48697326       0.75911400      -2.16832218       0.00000000
Si      -2.02952223      -0.59727285       1.15580909       0.00000000
Si       0.73073682       2.08236699       1.11973113       0.00000000
Si       1.90762416      -1.72691919      -0.37129919       0.00000000
Si      -2.73243573       0.37045089      -1.50661208       0.00000000
Si      -0.61203159      -1.92542913       2.52504264       0.00000000
Si       2.11367637       0.81370179       2.53236480       0.00000000
Si       0.78377706      -3.29406606       1.07917392       0.00000000
Si       3.50423964      -0.54573129       1.16619762       0.00000000
Si       1.10465748       2.72152143      -2.37433957       0.00000000
