10
Lattice="16.28999089631971 0.0 0.0 0.0 16.28999089631971 0.0 0.0 0.0 34.376317263855086" Properties=species:S:1:pos:R:3:initial_magmoms:R:1 pbc="T T T"
Si      -1.24629903       1.35149985       1.42186028       0.00000000
Si       1.47046572      -1.37573937       1.39614334       0.00000000
Si      -1.86201216      -0.84909996      -1.38724816       0.00000000
Si       0.86892489       1.66326994      -1.61096936       0.00000000
Si      -2.56329666       2.57743379      -0.12236257       0.00000000
Si       2.69961138       2.61371162      -0.00056721       0.00000000
Si      -2.59239060      -0.01161477       2.77897273       0.00000000
Si      -2.68366347      -2.72658762      -0.15080899       0.00000000
Si       0.12087180       2.70812195       2.77962588       0.00000000
Si       0.12238677      -2.72150514       2.77694452       0.00000000
