10
Lattice="16.28999089631971 0.0 0.0 0.0 16.28999089631971 0.0 0.0 0.0 34.376317263855086" Properties=species:S:1:pos:R:3:initial_magmoms:R:1 pbc="T T T"
Si      -1.35751086      -1.35676152      -1.35786529       0.00000000
Si       1.35760860       1.35842310      -1.35814030       0.00000000
Si       1.35894438      -1.35630540       1.35906846       0.00000000
Si      -1.36034532       1.36223496       1.36082166       0.00000000
Si      -0.03064149      -2.70580158       2.70579582       0.00000000
Si       2.71466334       2.71370223      -0.00161569       0.00000000
Si       2.71428867      -2.71521720      -0.00044689       0.00000000
Si       2.71534752       0.00013032      -2.71497430       0.00000000
Si       0.00043983      -2.71466334      -2.71569621       0.00000000
Si      -2.71533123       0.00102627      -2.71507743       0.00000000
