10
Lattice="16.28999089631971 0.0 0.0 0.0 16.28999089631971 0.0 0.0 0.0 34.376317263855086" Properties=species:S:1:pos:R:3:initial_magmoms:R:1 pbc="T T T"
Si      -1.13713974       0.45784674       2.01294076       0.00000000
Si       0.00645084      -2.30236344      -0.56023116       0.00000000
Si      -1.18073178       1.26648234      -1.63995751       0.00000000
Si       2.28866355       0.69765183       0.43101051       0.00000000
Si      -0.89710659       2.81562617       1.93208762       0.00000000
Si       0.84883932       1.36714478      -3.23185690       0.00000000
Si      -1.49446089       3.33970154      -0.34665098       0.00000000
Si      -0.19930815      -0.99225648       3.66596127       0.00000000
Si       1.04637186      -3.54058263       1.13080959       0.00000000
Si       1.29036348      -2.59442685      -2.57114371       0.00000000
