10
Lattice="16.28999089631971 0.0 0.0 0.0 16.28999089631971 0.0 0.0 0.0 34.376317263855086" Properties=species:S:1:pos:R:3:initial_magmoms:R:1 pbc="T T T"
Si      -1.39221738       1.27606086       1.43956065       0.00000000
Si      -0.71400047      -2.00828007      -1.11650181       0.00000000
Si       1.34126810      -1.42030881       1.41271274       0.00000000
Si       0.77517431       1.83692556      -1.37555333       0.00000000
Si       2.58851195       2.64259638       0.06898643       0.00000000
Si      -2.70302481       2.64925899       0.07215249       0.00000000
Si      -2.70587556      -2.73124656       0.03208000       0.00000000
Si       0.22981117      -1.73022606      -3.43153326       0.00000000
Si      -0.02941322       2.64800466       2.79730219       0.00000000
Si       2.68516052      -0.07294662       2.79864287       0.00000000
