10
Lattice="16.28999089631971 0.0 0.0 0.0 16.28999089631971 0.0 0.0 0.0 34.376317263855086" Properties=species:S:1:pos:R:3:initial_magmoms:R:1 pbc="T T T"
Si      -0.64941714      -1.34843733      -1.78516315       0.00000000
Si      -1.89509715       1.19988882       0.74998853       0.00000000
Si       1.15838190      -1.59182622       1.32878291       0.00000000
Si       1.37603259       1.91946699      -0.38879637       0.00000000
Si      -0.94552047       2.43784737       2.53889871       0.00000000
Si       2.00345823      -0.41717061       3.19442107       0.00000000
Si       2.87039574      -2.55168189       0.00807844       0.00000000
Si       0.60375627       3.61639501       1.15208854       0.00000000
Si       0.59287455       2.88979713      -2.48496223       0.00000000
Si       1.18886049      -2.13135102      -2.98836931       0.00000000
