10
Lattice="16.28999089631971 0.0 0.0 0.0 16.28999089631971 0.0 0.0 0.0 34.376317263855086" Properties=species:S:1:pos:R:3:initial_magmoms:R:1 pbc="T T T"
Si      -0.52616700       1.73776086      -1.47697930       0.00000000
Si       1.74483819      -1.15686693      -1.06920719       0.00000000
Si      -1.88892324      -1.42366455       0.20550174       0.00000000
Si       0.57081789       1.27874449       2.33009684       0.00000000
Si       1.71222561       2.48093183      -1.80314198       0.00000000
Si      -2.16011916      -1.23362541       2.55381804       0.00000000
Si       3.21590664       0.66932352      -1.55106030       0.00000000
Si       1.85733693       3.14063774       0.36672676       0.00000000
Si      -1.38670254       3.53156516      -0.01089730       0.00000000
Si       0.89782335      -1.90672821      -3.16571683       0.00000000
