10
Lattice="16.28999089631971 0.0 0.0 0.0 16.28999089631971 0.0 0.0 0.0 34.376317263855086" Properties=species:S:1:pos:R:3:initial_magmoms:R:1 pbc="T T T"
Si       1.23733953      -1.37273077       1.42802739       0.00000000
Si      -1.34522820      -1.35217004      -1.35899971       0.00000000
Si       1.36409202       1.36469964      -1.35992787       0.00000000
Si      -1.44054099       1.32408867       1.34848055       0.00000000
Si       0.07213212       2.56815597       2.67489149       0.00000000
Si      -0.39816018      -2.60353526       2.74560362       0.00000000
Si       2.70783783      -2.70772610       0.01206609       0.00000000
Si      -2.70770751       0.00354633      -2.72026826       0.00000000
Si      -2.72047887      -2.71186376       0.02612602       0.00000000
Si      -2.71039536       2.72255259      -0.01285675       0.00000000
