10
Lattice="16.28999089631971 0.0 0.0 0.0 16.28999089631971 0.0 0.0 0.0 34.376317263855086" Properties=species:S:1:pos:R:3:initial_magmoms:R:1 pbc="T T T"
Si       1.35306369       1.35423657      -1.37962551       0.00000000
Si      -1.36862064      -1.35920502      -1.37440031       0.00000000
Si      -1.31676957       1.40162418       1.41905517       0.00000000
Si       1.26296370      -1.51861896       1.41585817       0.00000000
Si      -2.66058054      -0.15574869       2.66041906       0.00000000
Si       2.67968449       2.70024669      -0.01045041       0.00000000
Si      -2.71322982       2.70871749      -0.01467870       0.00000000
Si       2.70546179      -0.00403992      -2.73553135       0.00000000
Si       2.70029460      -2.74302260      -0.00230321       0.00000000
Si      -0.00845451       2.70946683      -2.73515321       0.00000000
