10
Lattice="16.28999089631971 0.0 0.0 0.0 16.28999089631971 0.0 0.0 0.0 34.376317263855086" Properties=species:S:1:pos:R:3:initial_magmoms:R:1 pbc="T T T"
Si      -1.32401862       0.25796844       1.91342126       0.00000000
Si       0.77493159       2.17487790      -0.49330043       0.00000000
Si       1.40505227      -1.79382222       0.67078545       0.00000000
Si      -2.01807036      -1.17431352      -0.61946158       0.00000000
Si       2.52339335      -0.33358662      -2.00111530       0.00000000
Si      -0.63521226      -2.53819377      -1.92792808       0.00000000
Si      -2.59703325      -1.76652018       1.74765857       0.00000000
Si       0.76453857      -1.12181085      -3.37692504       0.00000000
Si       0.12365739       0.50660271       3.78009071       0.00000000
Si      -3.15900567       0.24105942      -2.13236415       0.00000000
