10
Lattice="16.28999089631971 0.0 0.0 0.0 16.28999089631971 0.0 0.0 0.0 34.376317263855086" Properties=species:S:1:pos:R:3:initial_magmoms:R:1 pbc="T T T"
Si       1.38285810      -1.36388025      -1.30846650       0.00000000
Si      -1.14093531       1.41537294      -1.51290257       0.00000000
Si       2.01807036       1.17431352       0.61946158       0.00000000
Si      -0.57896289      -0.59220666       2.36712015       0.00000000
Si       0.69405174       1.43228196       2.53288285       0.00000000
Si       3.42312263      -0.61950870       1.29024704       0.00000000
Si       0.02427210      -2.52551380      -2.75976667       0.00000000
Si      -2.60757288       2.69291619      -0.30508999       0.00000000
Si      -2.88209196      -0.09689292       2.57825961       0.00000000
Si      -2.65360842       0.17130564      -2.83931351       0.00000000
