10
Lattice="16.28999089631971 0.0 0.0 0.0 16.28999089631971 0.0 0.0 0.0 34.376317263855086" Properties=species:S:1:pos:R:3:initial_magmoms:R:1 pbc="T T T"
Si       1.32401862      -0.25796844      -1.91342126       0.00000000
Si       1.44767601       0.24863427       1.86666945       0.00000000
Si      -1.22735376       1.99901106       0.40983468       0.00000000
Si      -1.27301463      -2.02448862      -0.16576269       0.00000000
Si      -0.69405174      -1.43228196      -2.53288285       0.00000000
Si      -2.04610545       1.41959205       2.52129802       0.00000000
Si       2.72907089      -2.05179066      -1.24263581       0.00000000
Si       2.09895021       1.91690946      -2.40672169       0.00000000
Si      -0.05131350       0.78218064       3.67613667       0.00000000
Si       2.87642371       2.07876690       1.31224789       0.00000000
