10
Lattice="16.28999089631971 0.0 0.0 0.0 16.28999089631971 0.0 0.0 0.0 34.376317263855086" Properties=species:S:1:pos:R:3:initial_magmoms:R:1 pbc="T T T"
Si      -1.80669132      -1.01287962      -1.12101027       0.00000000
Si      -1.38445452       1.31830083       1.39869750       0.00000000
Si       1.30780890      -1.40867775       1.40202513       0.00000000
Si       1.99187508       0.72296649      -1.14858181       0.00000000
Si      -2.71761183       2.63217078      -0.04695120       0.00000000
Si       2.68269651      -2.71565703       0.00289449       0.00000000
Si      -1.23870789      -1.31831712      -3.36660324       0.00000000
Si      -0.04039920       2.66323581       2.76989737       0.00000000
Si       2.70587556       2.73124656      -0.03208000       0.00000000
Si       2.67381521      -0.05146011       2.76391589       0.00000000
