10
Lattice="16.28999089631971 0.0 0.0 0.0 16.28999089631971 0.0 0.0 0.0 34.376317263855086" Properties=species:S:1:pos:R:3:initial_magmoms:R:1 pbc="T T T"
Si      -0.77493159      -2.17487790       0.49330043       0.00000000
Si      -0.00123804       1.41946173       1.90637412       0.00000000
Si      -1.59857028       1.27029420      -1.39461359       0.00000000
Si       1.74846176      -2.50846452      -1.50781487       0.00000000
Si      -0.02741607       2.25225540      -2.90844432       0.00000000
Si      -2.09895021      -1.91690946       2.40672169       0.00000000
Si       0.77747350       0.16185744       3.71896959       0.00000000
Si       2.55877523      -0.56988936      -2.85364844       0.00000000
Si      -2.59012629      -0.37644561      -2.88042761       0.00000000
Si       1.72586753       3.13698159      -1.58736171       0.00000000
