10
Lattice="16.28999089631971 0.0 0.0 0.0 16.28999089631971 0.0 0.0 0.0 34.376317263855086" Properties=species:S:1:pos:R:3:initial_magmoms:R:1 pbc="T T T"
Si       1.57115421       0.98196120      -1.51383073       0.00000000
Si      -0.99155601      -1.64673981      -1.48581402       0.00000000
Si       1.59857028      -1.27029420       1.39461359       0.00000000
Si      -1.82931813       1.36576989       1.23026033       0.00000000
Si       1.59733224       0.14916753       3.30098771       0.00000000
Si       0.31485312       2.37938256      -2.91765718       0.00000000
Si      -2.38801626      -0.33964650      -2.91954788       0.00000000
Si       3.32443781       1.86668739      -0.19274812       0.00000000
Si      -2.33536698      -3.20411268      -0.24445013       0.00000000
Si      -3.10787136      -0.31306122       2.47794946       0.00000000
