10
Lattice="16.28999089631971 0.0 0.0 0.0 16.28999089631971 0.0 0.0 0.0 34.376317263855086" Properties=species:S:1:pos:R:3:initial_magmoms:R:1 pbc="T T T"
Si      -1.63580922       0.25761006      -1.63493856       0.00000000
Si       0.79423524      -2.20753935       0.08143754       0.00000000
Si       1.49747454       1.81209960      -0.12289540       0.00000000
Si      -1.12619286       0.39283335       2.04370758       0.00000000
Si      -3.16654794      -1.05399558      -0.34091013       0.00000000
Si      -1.40895468       2.68925094       1.81218295       0.00000000
Si       1.32204753      -1.94017158       2.64460594       0.00000000
Si       2.90639664      -1.87866054      -1.11399956       0.00000000
Si       0.35448669       3.71403855       0.66009441       0.00000000
Si      -3.09754350      -0.87451236       2.04312318       0.00000000
