10
Lattice="16.28999089631971 0.0 0.0 0.0 16.28999089631971 0.0 0.0 0.0 34.376317263855086" Properties=species:S:1:pos:R:3:initial_magmoms:R:1 pbc="T T T"
Si      -1.35633798       1.35654975      -1.35765903       0.00000000
Si      -1.35663120      -1.35739683       1.35728089       0.00000000
Si       1.35860622       1.35736425       1.35710901       0.00000000
Si       1.35930180      -1.35553977      -1.36030601       0.00000000
Si      -2.70487305       0.00514764      -2.71928853       0.00000000
Si      -2.71401174       2.71349046      -0.00048127       0.00000000
Si      -2.71257822      -2.71581993      -0.00075628       0.00000000
Si       2.70334898       0.02441871      -2.72522876       0.00000000
Si      -2.71456560      -0.00011403       2.71442428       0.00000000
Si       0.00141957       2.71494027       2.71476804       0.00000000
