10
Lattice="16.28999089631971 0.0 0.0 0.0 16.28999089631971 0.0 0.0 0.0 34.376317263855086" Properties=species:S:1:pos:R:3:initial_magmoms:R:1 pbc="T T T"
Si      -1.34786718      -1.35747828       1.36181857       0.00000000
Si       1.35690813      -1.35672894      -1.35865595       0.00000000
Si      -1.35860229       1.35892809      -1.35841531       0.00000000
Si       1.35500220       1.36155078       1.36370927       0.00000000
Si       2.61130329      -0.03587058       2.76753572       0.00000000
Si      -2.77798257      -0.00759114       2.63271173       0.00000000
Si      -0.06701706       2.63213820       2.78238630       0.00000000
Si      -2.71684620      -2.71090035      -0.00110004       0.00000000
Si      -0.00055386      -2.71249677      -2.71600559       0.00000000
Si       2.71842633      -2.71195920      -0.00312825       0.00000000
