10
Lattice="16.28999089631971 0.0 0.0 0.0 16.28999089631971 0.0 0.0 0.0 34.376317263855086" Properties=species:S:1:pos:R:3:initial_magmoms:R:1 pbc="T T T"
Si       1.19775483      -1.72866222       1.04590004       0.00000000
Si      -2.09600172       0.54835398       0.94287416       0.00000000
Si       1.00817181       2.12279877       0.37346452       0.00000000
Si      -0.25681185      -1.09418301      -2.17980350       0.00000000
Si      -1.53536508      -2.77301412      -0.93211436       0.00000000
Si      -1.29676545       1.03943232       3.06055961       0.00000000
Si      -0.15522741      -3.64814550       0.80110615       0.00000000
Si       3.21098706       1.66501719       1.05425349       0.00000000
Si       0.07034022       2.89274562       2.46038315       0.00000000
Si       1.96338483      -0.98160282       3.16207293       0.00000000
