10
Lattice="16.28999089631971 0.0 0.0 0.0 16.28999089631971 0.0 0.0 0.0 34.376317263855086" Properties=species:S:1:pos:R:3:initial_magmoms:R:1 pbc="T T T"
Si       0.03473028       1.97405478       1.21833174       0.00000000
Si       1.63895319      -1.16522370      -1.16384525       0.00000000
Si      -1.13323014       0.51030054      -2.03143523       0.00000000
Si      -0.81880056      -1.76334363       1.56518898       0.00000000
Si      -2.50033581      -1.34301276      -1.43125877       0.00000000
Si      -1.36796904      -3.09773898      -0.27645450       0.00000000
Si       1.46287458       1.10641680       2.98121903       0.00000000
Si       0.75981447      -3.36404790      -1.32974545       0.00000000
Si      -2.31316371       2.70780525       1.16831417       0.00000000
Si       3.61511168      -1.18529298       0.04204226       0.00000000
