10
Lattice="16.28999089631971 0.0 0.0 0.0 16.28999089631971 0.0 0.0 0.0 34.376317263855086" Properties=species:S:1:pos:R:3:initial_magmoms:R:1 pbc="T T T"
Si       0.68020524       0.44261559      -2.20620452       0.00000000
Si      -1.14298785       1.90193895       0.78298982       0.00000000
Si      -1.49747454      -1.81209960       0.12289540       0.00000000
Si       1.54877175      -0.29154213       1.85797223       0.00000000
Si       1.40626683      -1.87416450      -2.63583998       0.00000000
Si      -2.90642922       0.87715134       1.93507836       0.00000000
Si       2.23255201       2.25023544      -1.75088995       0.00000000
Si      -2.62366740      -1.41926625       2.16660298       0.00000000
Si      -3.13328376      -1.55448954      -1.51204316       0.00000000
Si       0.01225008       2.90074401       2.55718692       0.00000000
