10
Lattice="16.28999089631971 0.0 0.0 0.0 16.28999089631971 0.0 0.0 0.0 34.376317263855086" Properties=species:S:1:pos:R:3:initial_magmoms:R:1 pbc="T T T"
Si       1.53989370       1.40931306      -1.04992207       0.00000000
Si      -1.15523793      -0.99880506      -1.77419710       0.00000000
Si       0.91777860      -1.74083085       1.27790593       0.00000000
Si      -1.62215820       1.27682649       1.19701841       0.00000000
Si      -3.21378894      -0.68558094       1.40303580       0.00000000
Si      -2.91867930      -2.02359267      -0.62210856       0.00000000
Si       1.53652167      -3.19228614      -0.69921468       0.00000000
Si      -1.63647711       0.84229074      -3.18816457       0.00000000
Si       3.10880871      -0.08496864      -2.05804251       0.00000000
Si       0.37942668       2.21100912      -3.00201671       0.00000000
