10
Lattice="16.28999089631971 0.0 0.0 0.0 16.28999089631971 0.0 0.0 0.0 34.376317263855086" Properties=species:S:1:pos:R:3:initial_magmoms:R:1 pbc="T T T"
Si       0.85704038       2.06230490      -0.73262848       0.00000000
Si      -0.62424909      -0.76618386      -2.16739364       0.00000000
Si      -1.87172100       0.34229592       1.46092555       0.00000000
Si       1.85012765      -1.13612976       1.07216356       0.00000000
Si       2.23558163       2.75319638       1.12771572       0.00000000
Si      -1.18322415       1.31793335      -3.33134202       0.00000000
Si      -0.94462452       1.18995259       3.46279713       0.00000000
Si      -3.14504514       2.08960694       0.34424463       0.00000000
Si       1.86460783      -3.35321505       0.34833542       0.00000000
Si       1.35196967      -1.55388681      -3.31095685       0.00000000
