10
Lattice="16.28999089631971 0.0 0.0 0.0 16.28999089631971 0.0 0.0 0.0 34.376317263855086" Properties=species:S:1:pos:R:3:initial_magmoms:R:1 pbc="T T T"
Si       0.89623019       0.35085402       2.19090705       0.00000000
Si       1.81075079      -1.58451201      -0.39453721       0.00000000
Si      -2.32512450      -0.80068608      -0.17721001       0.00000000
Si       0.11913203       2.37205206      -0.71100577       0.00000000
Si       2.71385210       1.52205615       1.17443316       0.00000000
Si      -1.83875397      -1.58788404      -2.38001128       0.00000000
Si      -3.05118609       1.51609401       0.25242544       0.00000000
Si       3.38786714       0.13243770      -0.69512390       0.00000000
Si      -1.49883932       3.32371386       0.70774002       0.00000000
Si      -2.32246923      -2.61728172       1.46752580       0.00000000
