10
Lattice="16.28999089631971 0.0 0.0 0.0 16.28999089631971 0.0 0.0 0.0 34.376317263855086" Properties=species:S:1:pos:R:3:initial_magmoms:R:1 pbc="T T T"
Si      -1.88511790      -1.12241358       0.83943576       0.00000000
Si       2.16051012      -0.81179586       0.44940185       0.00000000
Si      -0.66645648      -0.55374597      -2.21301104       0.00000000
Si      -0.32364972       2.30290101       0.65504109       0.00000000
Si       2.13042249      -0.95900859       2.83539461       0.00000000
Si      -1.16367615      -3.50293644       0.35706701       0.00000000
Si      -0.98000640       1.62412929      -3.21934391       0.00000000
Si      -2.84206091      -1.47416355      -1.98805229       0.00000000
Si      -3.78059039      -0.17480799      -0.25555369       0.00000000
Si      -1.88528405       2.97481464      -1.48987042       0.00000000
