10
Lattice="16.28999089631971 0.0 0.0 0.0 16.28999089631971 0.0 0.0 0.0 34.376317263855086" Properties=species:S:1:pos:R:3:initial_magmoms:R:1 pbc="T T T"
Si       1.27387800      -1.38536676      -1.36339301       0.00000000
Si       1.36855548       1.33380891       1.36822288       0.00000000
Si      -1.34404718      -1.37995848       1.36492275       0.00000000
Si      -1.35005818       1.41622002      -1.51979159       0.00000000
Si      -0.53945964      -2.19103758      -2.80793277       0.00000000
Si       2.33274429       0.11624544      -2.78634443       0.00000000
Si      -2.33131240      -0.47340369      -2.87458848       0.00000000
Si       2.72798856       2.68092675      -0.00576491       0.00000000
Si      -2.71494746       2.69575065      -0.02266776       0.00000000
Si       0.01433520       2.68998399       2.72612255       0.00000000
