10
Lattice="16.28999089631971 0.0 0.0 0.0 16.28999089631971 0.0 0.0 0.0 34.376317263855086" Properties=species:S:1:pos:R:3:initial_magmoms:R:1 pbc="T T T"
Si      -1.10158356       1.76997366       1.04263429       0.00000000
Si       0.50533209       0.41005188      -2.28417005       0.00000000
Si       2.07915786      -0.70266915       0.93128933       0.00000000
Si      -1.88523518      -1.55084058       0.06263369       0.00000000
Si      -0.92768292       0.88197318       3.21346556       0.00000000
Si      -3.07774205       1.79004294      -0.16325322       0.00000000
Si       2.77060320      -2.40991002      -0.56311877       0.00000000
Si       2.14694055      -1.30885263      -2.74563799       0.00000000
Si      -1.61998837       0.36616662      -3.43230532       0.00000000
Si       3.62587707       1.08840006       0.73541297       0.00000000
