10
Lattice="16.28999089631971 0.0 0.0 0.0 16.28999089631971 0.0 0.0 0.0 34.376317263855086" Properties=species:S:1:pos:R:3:initial_magmoms:R:1 pbc="T T T"
Si       1.35982241      -1.35589815       1.36398428       0.00000000
Si      -1.35707739       1.36015198       1.36295299       0.00000000
Si      -1.36946025      -1.35013149      -1.38480603       0.00000000
Si       1.36689227       1.36878291      -1.37464094       0.00000000
Si       2.71404269      -2.71207323       0.00608461       0.00000000
Si      -2.71419975      -2.71375110       0.00543146       0.00000000
Si      -2.71393911       2.71822989       0.00374702       0.00000000
Si       2.71669796       2.71610242       0.00312825       0.00000000
Si       0.00074445      -2.71293660       2.72019951       0.00000000
Si      -2.71431378       0.00213399       2.71992449       0.00000000
