10
Lattice="16.28999089631971 0.0 0.0 0.0 16.28999089631971 0.0 0.0 0.0 34.376317263855086" Properties=species:S:1:pos:R:3:initial_magmoms:R:1 pbc="T T T"
Si      -1.35498913      -1.35664749      -1.35673087       0.00000000
Si      -1.35231991       1.36001424       1.35827781       0.00000000
Si       1.35959761       1.35788046      -1.35693713       0.00000000
Si       1.35858763      -1.35479043       1.36188732       0.00000000
Si      -0.00443740       2.69188245       2.73305626       0.00000000
Si      -2.71336570       2.71379087       0.00068753       0.00000000
Si      -2.71286071       0.00084708      -2.71466492       0.00000000
Si       0.00219752      -2.71422351      -2.71438990       0.00000000
Si      -2.71409875      -2.71477737       0.00020626       0.00000000
Si       2.71543060       2.71443106      -0.00013751       0.00000000
