10
Lattice="16.28999089631971 0.0 0.0 0.0 16.28999089631971 0.0 0.0 0.0 34.376317263855086" Properties=species:S:1:pos:R:3:initial_magmoms:R:1 pbc="T T T"
Si       1.01900466       1.77737325       1.23225416       0.00000000
Si       1.45899756      -1.18600974      -1.48402645       0.00000000
Si      -1.25267656       1.50434145      -1.47945439       0.00000000
Si      -1.55456447      -1.55945799       1.40808912       0.00000000
Si       2.64411135      -2.56039704       0.00622212       0.00000000
Si       2.40347547       0.49240176       2.82961938       0.00000000
Si       0.11034846      -2.54233143      -2.85062333       0.00000000
Si      -2.69000747       2.72874509      -0.06129301       0.00000000
Si      -2.60055908       0.17247324      -2.85423284       0.00000000
Si      -0.93115269       3.51696932       1.31451673       0.00000000
