10
Lattice="16.28999089631971 0.0 0.0 0.0 16.28999089631971 0.0 0.0 0.0 34.376317263855086" Properties=species:S:1:pos:R:3:initial_magmoms:R:1 pbc="T T T"
Si       1.35443205      -1.35924900      -1.36157794       0.00000000
Si      -1.36026876       1.35718506      -1.36161231       0.00000000
Si       1.35009891       1.36694277       1.37873173       0.00000000
Si      -1.36543595      -1.38179762       1.37161583       0.00000000
Si      -0.23359860       2.56940541       2.81975338       0.00000000
Si       2.62659960      -0.07934859       2.78114875       0.00000000
Si      -2.71331846      -2.71366582      -0.00316262       0.00000000
Si      -2.71266686       2.71546155      -0.00570647       0.00000000
Si       2.71699281      -2.71340764       0.00085941       0.00000000
Si       2.71370223       2.71669959      -0.00299074       0.00000000
