10
Lattice="16.28999089631971 0.0 0.0 0.0 16.28999089631971 0.0 0.0 0.0 34.376317263855086" Properties=species:S:1:pos:R:3:initial_magmoms:R:1 pbc="T T T"
Si      -0.68442435       0.02583594       2.21974880       0.00000000
Si       1.93986207       1.29112911      -0.37343014       0.00000000
Si      -1.81264369       0.76685175      -1.32070447       0.00000000
Si       0.42052635      -2.22985665      -0.77095810       0.00000000
Si       2.01955275      -1.55774754      -2.40163400       0.00000000
Si       3.40705350      -0.47011311      -0.84868299       0.00000000
Si      -1.20814785      -0.08048889      -3.47692580       0.00000000
Si      -2.31676217      -1.77627789       2.27736354       0.00000000
Si      -1.15751853       2.38228218       2.69953933       0.00000000
Si       1.10604213       0.16996986      -3.71986337       0.00000000
