10
Lattice="10.86 0.0 0.0 0.0 10.86 0.0 0.0 0.0 10.86" Properties=species:S:1:pos:R:3:initial_magmoms:R:1 pbc="T T T"
Si       1.16021724      -1.29818268      -1.44891948       0.00000000
Si       1.24542480       1.32450732       1.38662652       0.00000000
Si      -1.55478276      -1.29818268       1.26608052       0.00000000
Si      -1.55478276       1.41681732      -1.44891948       0.00000000
Si       2.54570346      -2.66942058      -0.22197840       0.00000000
Si       2.42125872      -0.15206172       2.79880662       0.00000000
Si       2.46493764       2.79791610       0.06694104       0.00000000
Si      -0.24407850       2.72732610       2.54763654       0.00000000
Si       2.51771724       0.05931732      -2.80641948       0.00000000
Si      -0.36080178      -2.81360880       2.59125030       0.00000000
