10
Lattice="10.86 0.0 0.0 0.0 10.86 0.0 0.0 0.0 10.86" Properties=species:S:1:pos:R:3:initial_magmoms:R:1 pbc="T T T"
Si       1.35750000       1.35750000       1.35750000       0.00000000
Si      -1.35750000      -1.35750000       1.35750000       0.00000000
Si      -1.35750000       1.35750000      -1.35750000       0.00000000
Si       1.35750000      -1.35750000      -1.35750000       0.00000000
Si       0.02798622      -2.72873790       2.58444108       0.00000000
Si      -2.51771724      -0.05931732       2.80641948       0.00000000
Si       2.72736954       0.11768982       2.60798556       0.00000000
Si      -2.67112560       0.10684068      -2.67397092       0.00000000
Si       2.68637304      -0.03854214      -2.69095596       0.00000000
Si       2.71500000       2.71500000       0.00000000       0.00000000
