10
Lattice="10.86 0.0 0.0 0.0 10.86 0.0 0.0 0.0 10.86" Properties=species:S:1:pos:R:3:initial_magmoms:R:1 pbc="T T T"
Si      -1.17583392       1.47656904      -1.41218010       0.00000000
Si       0.20618796      -2.53850328       2.51012610       0.00000000
Si      -2.57466708       0.31821972       2.58080298       0.00000000
Si      -2.42125872       0.15206172      -2.79880662       0.00000000
Si       2.78283156       0.17283690       2.56381794       0.00000000
Si       2.79992520      -2.64801552      -0.09891288       0.00000000
Si      -2.78206050      -2.66154708      -0.20755632       0.00000000
Si      -0.00381186       2.93542542       2.53337736       0.00000000
Si      -2.66533722       2.87938782      -0.25117008       0.00000000
Si       0.12444474      -2.51735886      -3.02078502       0.00000000
