10
Lattice="10.86 0.0 0.0 0.0 10.86 0.0 0.0 0.0 10.86" Properties=species:S:1:pos:R:3:initial_magmoms:R:1 pbc="T T T"
Si       1.32951378      -1.34376210      -1.22694108       0.00000000
Si      -1.38548622       1.37123790      -1.22694108       0.00000000
Si      -1.38548622      -1.34376210       1.48805892       0.00000000
Si      -2.54570346       2.66942058       0.22197840       0.00000000
Si       2.68701378       0.01373790      -2.58444108       0.00000000
Si      -0.02798622      -2.70126210      -2.58444108       0.00000000
Si      -0.02798622       2.72873790      -2.58444108       0.00000000
Si      -2.74298622       0.01373790      -2.58444108       0.00000000
Si       2.68701378      -2.70126210       0.13055892       0.00000000
Si      -2.74298622      -2.70126210       0.13055892       0.00000000
