10
Lattice="16.28999089631971 0.0 0.0 0.0 16.28999089631971 0.0 0.0 0.0 34.185847837958455" Properties=species:S:1:pos:R:3:initial_magmoms:R:1 pbc="T T T"
Si      -1.35358497       1.35125550      -1.35765752       0.00000000
Si      -1.35685926      -1.35679410       1.35711055       0.00000000
Si       1.35840681       1.35764118       1.35680287       0.00000000
Si       1.35918873      -1.35586557      -1.35892240       0.00000000
Si       2.69752626      -0.01532889      -2.71761917       0.00000000
Si       0.01141929       2.72072322      -2.69923743       0.00000000
Si      -2.71381626       2.71454931      -0.00153836       0.00000000
Si      -2.71446786      -0.00004887       2.71418691       0.00000000
Si       0.00120546       2.71534752       2.71411853       0.00000000
Si       0.00081450      -2.71524978       2.71422109       0.00000000
