10
Lattice="16.28999089631971 0.0 0.0 0.0 16.28999089631971 0.0 0.0 0.0 34.185847837958455" Properties=species:S:1:pos:R:3:initial_magmoms:R:1 pbc="T T T"
Si      -1.35690813      -1.35671265      -1.35734985       0.00000000
Si      -1.35446463       1.35679410       1.36182820       0.00000000
Si       1.35835794       1.35887922      -1.35741822       0.00000000
Si       1.35837423      -1.35824391       1.35875147       0.00000000
Si      -2.71875213      -0.03033198       2.70365766       0.00000000
Si       2.71435383      -2.71404106      -0.00105976       0.00000000
Si       0.00089595      -2.71449067      -2.71428946       0.00000000
Si      -2.71458189       0.00174303      -2.71446039       0.00000000
Si       0.01712079       2.72095128       2.70946926       0.00000000
Si       2.71586880       0.00104256      -2.71463132       0.00000000
