10
Lattice="16.28999089631971 0.0 0.0 0.0 16.28999089631971 0.0 0.0 0.0 34.185847837958455" Properties=species:S:1:pos:R:3:initial_magmoms:R:1 pbc="T T T"
Si       2.31195825       0.49401054       0.13523929       0.00000000
Si      -1.11083858       2.09163600      -0.14176879       0.00000000
Si      -1.06229438      -0.61825437       2.07087726       0.00000000
Si      -0.15114188      -1.53106452      -1.97529358       0.00000000
Si      -1.62524420       0.35127756      -2.91793467       0.00000000
Si      -3.12540659       0.88016499      -1.10738279       0.00000000
Si       1.20262554      -3.28887281      -0.90072922       0.00000000
Si       0.18470091      -2.36149614       2.92125070       0.00000000
Si       2.54039292       2.09533383       1.84846401       0.00000000
Si      -3.26365982      -1.21619511       1.53904773       0.00000000
