10
Lattice="16.28999089631971 0.0 0.0 0.0 16.28999089631971 0.0 0.0 0.0 34.185847837958455" Properties=species:S:1:pos:R:3:initial_magmoms:R:1 pbc="T T T"
Si      -1.34514675      -1.35112518      -1.34082782       0.00000000
Si      -1.35651717       1.35729909       1.35823868       0.00000000
Si       1.35912357      -1.35733167       1.35830705       0.00000000
Si       1.36432008       1.35513252      -1.38477033       0.00000000
Si      -2.68855047      -0.04645908      -2.68617159       0.00000000
Si       0.00881289      -2.68105707      -2.71305194       0.00000000
Si      -2.71301805       0.00055386       2.71545178       0.00000000
Si       0.00184077      -2.71420722       2.71521248       0.00000000
Si      -0.13214448       2.59481781      -2.82668234       0.00000000
Si      -2.71192662       2.71855665       0.00345277       0.00000000
