10
Lattice="16.28999089631971 0.0 0.0 0.0 16.28999089631971 0.0 0.0 0.0 34.185847837958455" Properties=species:S:1:pos:R:3:initial_magmoms:R:1 pbc="T T T"
Si       1.30491045      -1.43661510       1.31495937       0.00000000
Si       1.36342413       1.34672688      -1.35389707       0.00000000
Si      -1.32605487       1.31105178       1.43088365       0.00000000
Si      -1.35384561      -1.36314720      -1.35570893       0.00000000
Si      -2.31782265      -0.51251598       2.63962753       0.00000000
Si      -2.70791114       2.69913897       0.00495695       0.00000000
Si       0.00384444       2.70697446      -2.71309296       0.00000000
Si      -2.71135321      -0.00946449      -2.71411853       0.00000000
Si       2.72658762       2.70207117       0.02215244       0.00000000
Si      -2.70610946      -2.72469798      -0.02584452       0.00000000
