10
Lattice="16.28999089631971 0.0 0.0 0.0 16.28999089631971 0.0 0.0 0.0 34.185847837958455" Properties=species:S:1:pos:R:3:initial_magmoms:R:1 pbc="T T T"
Si      -1.36342413      -1.34672688       1.35389707       0.00000000
Si       1.35746199      -1.35524655      -1.36042657       0.00000000
Si      -1.35957969       1.36024758      -1.35919588       0.00000000
Si       1.36316349       1.35534429       1.37604952       0.00000000
Si       2.71314837      -2.71000440      -0.00652950       0.00000000
Si      -2.71726974      -2.70987408      -0.00181185       0.00000000
Si      -0.00118917      -2.71207323      -2.71699015       0.00000000
Si       2.71349046       0.00239463      -2.71750294       0.00000000
Si      -2.71682991       0.00285075      -2.71668247       0.00000000
Si       2.71417464       2.71984356       0.00013674       0.00000000
