10
Lattice="16.28999089631971 0.0 0.0 0.0 16.28999089631971 0.0 0.0 0.0 34.185847837958455" Properties=species:S:1:pos:R:3:initial_magmoms:R:1 pbc="T T T"
Si       1.35101115       1.36449927      -1.37591277       0.00000000
Si      -1.36316349      -1.35534429      -1.37604952       0.00000000
Si      -1.40348124       1.30914585       1.41273095       0.00000000
Si       1.32841692      -1.40851485       1.41078236       0.00000000
Si       2.70708849       2.69801496       0.00355533       0.00000000
Si      -2.72658762      -2.70207117      -0.02215244       0.00000000
Si       2.70625770      -2.72756502      -0.00673462       0.00000000
Si       2.70658350       0.00405621      -2.73504028       0.00000000
Si      -2.72758131       2.71425609       0.00194859       0.00000000
Si      -0.00570150      -2.71059084      -2.73647609       0.00000000
