10
Lattice="16.28999089631971 0.0 0.0 0.0 16.28999089631971 0.0 0.0 0.0 34.185847837958455" Properties=species:S:1:pos:R:3:initial_magmoms:R:1 pbc="T T T"
Si       1.65504771       0.89932203       1.44859193       0.00000000
Si       1.37784078      -1.31905017      -1.41751697       0.00000000
Si      -1.32841692       1.40851485      -1.41078236       0.00000000
Si      -1.39652541      -1.48103793       1.38192949       0.00000000
Si       0.32770593      -2.59154352       2.49977315       0.00000000
Si       2.66709654       2.57605173       0.00112813       0.00000000
Si       3.47921820      -0.83533491       1.15261069       0.00000000
Si      -2.73189816       2.71766070       0.00194859       0.00000000
Si       0.02156796      -2.65683384      -2.79336137       0.00000000
Si       2.72653875      -2.72864016       0.01931501       0.00000000
