10
Lattice="16.28999089631971 0.0 0.0 0.0 16.28999089631971 0.0 0.0 0.0 34.185847837958455" Properties=species:S:1:pos:R:3:initial_magmoms:R:1 pbc="T T T"
Si      -1.30023522       0.14647968       1.97652427       0.00000000
Si      -0.94858299       0.59649093      -2.09173064       0.00000000
Si       1.64364471       1.79694990      -0.06833755       0.00000000
Si       0.94345164      -2.27545236       0.18419345       0.00000000
Si      -2.88746766       1.18882791      -0.92185609       0.00000000
Si       2.41087113      -1.42030881       1.78593806       0.00000000
Si       1.77477921      -2.26546659      -2.19104058       0.00000000
Si       3.62367792       0.37729269       0.13927322       0.00000000
Si       0.12715974       1.44252837       3.35069356       0.00000000
Si      -1.77453486      -2.17137555       2.44846016       0.00000000
