10
Lattice="16.28999089631971 0.0 0.0 0.0 16.28999089631971 0.0 0.0 0.0 34.185847837958455" Properties=species:S:1:pos:R:3:initial_magmoms:R:1 pbc="T T T"
Si       1.46741949       0.85514355       1.60174461       0.00000000
Si      -0.94345164       2.27545236      -0.18419345       0.00000000
Si       0.83132757       0.00998577      -2.37523404       0.00000000
Si      -1.07606853      -1.60489080       1.82039741       0.00000000
Si       2.55555891      -1.10051982      -1.25739037       0.00000000
Si       2.28468879      -1.97910468       0.83485306       0.00000000
Si      -2.71798650       0.10407681       2.26426671       0.00000000
Si      -2.24368686       2.42193204       1.79233082       0.00000000
Si       2.68022628       2.65274505      -0.04492023       0.00000000
Si      -1.87338258      -3.49695801       0.62864391       0.00000000
