10
Lattice="16.28999089631971 0.0 0.0 0.0 16.28999089631971 0.0 0.0 0.0 34.185847837958455" Properties=species:S:1:pos:R:3:initial_magmoms:R:1 pbc="T T T"
Si       1.58415363       0.73713879       1.51580134       0.00000000
Si      -0.58780836       1.91329308      -1.26327034       0.00000000
Si      -1.81268604      -1.17540495       1.02851599       0.00000000
Si       0.67458519      -1.39046553      -1.86825763       0.00000000
Si      -2.59442685       0.84940947      -1.88347034       0.00000000
Si      -2.71397753      -1.52340822      -1.17209663       0.00000000
Si       2.99543778       1.95157458       0.06816662       0.00000000
Si      -0.90311760      -3.10669848      -1.56656735       0.00000000
Si       2.90295945      -1.98415458      -1.45054052       0.00000000
Si      -2.74317573       0.19626192       2.75449204       0.00000000
