10
Lattice="16.28999089631971 0.0 0.0 0.0 16.28999089631971 0.0 0.0 0.0 34.185847837958455" Properties=species:S:1:pos:R:3:initial_magmoms:R:1 pbc="T T T"
Si      -0.97999011      -1.55470131      -1.45778792       0.00000000
Si       1.72343313       1.00577718      -1.37273349       0.00000000
Si      -1.50985494       1.99732897       0.00352114       0.00000000
Si       0.22424814      -1.69098345       2.04489600       0.00000000
Si      -2.30409018      -0.14959107      -2.86857028       0.00000000
Si      -2.36797956      -2.89144242       0.02150291       0.00000000
Si       0.43279272       2.56317841      -2.86792075       0.00000000
Si       3.15302724       2.27024675      -0.02669916       0.00000000
Si      -3.52601937       1.19203704      -1.25971501       0.00000000
Si       1.92678120       2.84123568       1.91686993       0.00000000
