10
Lattice="16.28999089631971 0.0 0.0 0.0 16.28999089631971 0.0 0.0 0.0 34.185847837958455" Properties=species:S:1:pos:R:3:initial_magmoms:R:1 pbc="T T T"
Si       1.69604964      -1.54715904       0.26302606       0.00000000
Si      -1.42739496      -1.29604869      -1.37416929       0.00000000
Si      -0.64005039       0.32650047       2.26067720       0.00000000
Si       0.79605972       1.69771122      -1.47012902       0.00000000
Si      -1.33942896       2.73305475      -1.95026952       0.00000000
Si      -0.12715974      -1.44252837      -3.35069356       0.00000000
Si       1.51648497       0.35442153      -3.41903111       0.00000000
Si       1.21997439      -2.93019633       2.11142170       0.00000000
Si       3.78823950      -0.38744136       0.45651807       0.00000000
Si       0.27315072      -1.40098887       3.57830306       0.00000000
