10
Lattice="16.28999089631971 0.0 0.0 0.0 16.28999089631971 0.0 0.0 0.0 34.185847837958455" Properties=species:S:1:pos:R:3:initial_magmoms:R:1 pbc="T T T"
Si       1.46842947      -1.76116077      -0.47733726       0.00000000
Si      -1.94170284      -1.29094992       0.37105340       0.00000000
Si       0.66038031       1.18543959       1.97748147       0.00000000
Si       0.11134215       0.77024007      -2.31496435       0.00000000
Si       0.08061921      -2.84842053      -2.03087980       0.00000000
Si       3.39087753      -0.52271352      -0.92626606       0.00000000
Si      -0.83258190      -1.12093119      -3.34850567       0.00000000
Si       2.45355093       0.92771550      -2.57785367       0.00000000
Si      -1.22785875       2.55072960       2.38695979       0.00000000
Si      -1.51907508      -3.52070883      -0.39922255       0.00000000
