10
Lattice="16.28999089631971 0.0 0.0 0.0 16.28999089631971 0.0 0.0 0.0 34.185847837958455" Properties=species:S:1:pos:R:3:initial_magmoms:R:1 pbc="T T T"
Si      -0.07133391       1.97202572      -1.33184719       0.00000000
Si       0.97318089      -0.34722135       2.18946803       0.00000000
Si      -2.40986115      -0.37528902      -0.30353631       0.00000000
Si       1.14077241      -1.53718956      -1.58287401       0.00000000
Si      -0.76409874       0.88157475      -3.34040362       0.00000000
Si       2.93019633      -2.10051405      -0.04174094       0.00000000
Si      -2.35356291      -2.73867480       0.15356291       0.00000000
Si      -0.46791396      -3.26621016      -1.52174968       0.00000000
Si      -1.77479550       3.22620911      -0.22149023       0.00000000
Si      -2.61447984      -0.56190726      -2.65436164       0.00000000
