10
Lattice="16.28999089631971 0.0 0.0 0.0 16.28999089631971 0.0 0.0 0.0 34.185847837958455" Properties=species:S:1:pos:R:3:initial_magmoms:R:1 pbc="T T T"
Si      -1.10947932       1.46925537       1.47601583       0.00000000
Si       1.39880601       1.23396261      -1.50382402       0.00000000
Si       1.58065128      -1.24305310       1.45773665       0.00000000
Si      -1.84008582      -0.96110348      -1.40130060       0.00000000
Si      -2.53948068       2.72586597       0.10994859       0.00000000
Si      -2.46760920       0.10748957       2.83632617       0.00000000
Si      -3.41800038       0.86473347      -1.31860499       0.00000000
Si      -2.68240914      -2.68289362       0.07481235       0.00000000
Si       0.24954651      -2.60563015       2.83092480       0.00000000
Si       2.88520335       2.64770655       0.08045986       0.00000000
