10
Lattice="16.28999089631971 0.0 0.0 0.0 16.28999089631971 0.0 0.0 0.0 34.185847837958455" Properties=species:S:1:pos:R:3:initial_magmoms:R:1 pbc="T T T"
Si       1.35637056       1.35544203       1.35765752       0.00000000
Si       1.35687555      -1.35750271      -1.35734985       0.00000000
Si      -1.35755973       1.35733167      -1.35734985       0.00000000
Si      -1.35907470      -1.35775195       1.35622171       0.00000000
Si       2.71423980      -0.00096111      -2.71374249       0.00000000
Si       2.71497285       0.00232947       2.71319552       0.00000000
Si       2.71446786       2.71476108      -0.00027349       0.00000000
Si       0.00019548      -2.71149398       2.71777642       0.00000000
Si       2.71458189      -2.71499144      -0.00006837       0.00000000
Si      -0.00192222       2.71464705      -2.71500737       0.00000000
