10
Lattice="16.28999089631971 0.0 0.0 0.0 16.28999089631971 0.0 0.0 0.0 34.185847837958455" Properties=species:S:1:pos:R:3:initial_magmoms:R:1 pbc="T T T"
Si       0.75838095      -1.00216569       1.97884891       0.00000000
Si       0.31779347       2.21829075      -0.83632305       0.00000000
Si      -0.08829669      -1.90064227      -1.51925411       0.00000000
Si      -2.34573624       1.26674298       0.55791335       0.00000000
Si       2.67453944       0.54073026       1.56451620       0.00000000
Si      -1.44253719      -1.50547456       2.93595062       0.00000000
Si       0.72301862      -1.06217316      -3.57108985       0.00000000
Si      -1.05335280       2.36643201      -2.78149888       0.00000000
Si       1.83485510      -3.24738611      -0.86835521       0.00000000
Si       0.13762607       3.81570444       0.82548613       0.00000000
