10
Lattice="16.28999089631971 0.0 0.0 0.0 16.28999089631971 0.0 0.0 0.0 34.185847837958455" Properties=species:S:1:pos:R:3:initial_magmoms:R:1 pbc="T T T"
Si      -1.87357806      -0.33955595       1.34976058       0.00000000
Si       1.01276559       2.17305342       0.27926435       0.00000000
Si      -1.23979932       1.36411646      -1.61217130       0.00000000
Si       1.54719162      -1.89121103      -0.18101417       0.00000000
Si       1.72612098      -0.29915675      -2.34433001       0.00000000
Si      -0.67935816      -1.60903565       2.95581261       0.00000000
Si      -0.01355328       0.79312752      -3.55574039       0.00000000
Si       3.31325568       1.64651175       0.05473157       0.00000000
Si      -0.02233359       3.43619631      -1.44654077       0.00000000
Si      -2.17202715       1.73174103       2.60721933       0.00000000
