10
Lattice="16.28999089631971 0.0 0.0 0.0 16.28999089631971 0.0 0.0 0.0 34.185847837958455" Properties=species:S:1:pos:R:3:initial_magmoms:R:1 pbc="T T T"
Si      -1.57791456       1.82583696       0.08269561       0.00000000
Si      -0.84232332      -1.72179014       1.47611296       0.00000000
Si       1.84008582       0.96110348       1.40130060       0.00000000
Si      -0.41495517      -1.22932715      -2.27069365       0.00000000
Si      -1.99907622      -0.28488182       2.88385619       0.00000000
Si      -1.80289575       2.29026486      -2.37889192       0.00000000
Si      -2.74414824      -2.57753642       0.22030300       0.00000000
Si      -3.38118498       0.95688437       1.40104079       0.00000000
Si       0.73060650       2.43035886       2.87731643       0.00000000
Si       3.23889183       2.19506610      -0.10252341       0.00000000
