10
Lattice="16.28999089631971 0.0 0.0 0.0 16.28999089631971 0.0 0.0 0.0 34.185847837958455" Properties=species:S:1:pos:R:3:initial_magmoms:R:1 pbc="T T T"
Si       0.55156311      -1.70516619       1.56919966       0.00000000
Si       2.24494119       0.78047182      -0.31126232       0.00000000
Si      -1.12026330      -0.33776500      -2.13039486       0.00000000
Si      -0.83637747       1.81442581       1.46100140       0.00000000
Si       0.44934336      -1.86352128      -3.13891212       0.00000000
Si       2.25502470      -2.89410813       0.38158265       0.00000000
Si      -1.42431615      -3.00874086       1.68478208       0.00000000
Si       3.73757760      -1.05970752      -0.07917447       0.00000000
Si      -1.45863918       1.85127379      -3.09655583       0.00000000
Si      -2.77540875       2.75484751       0.21314888       0.00000000
