10
Lattice="16.28999089631971 0.0 0.0 0.0 16.28999089631971 0.0 0.0 0.0 34.185847837958455" Properties=species:S:1:pos:R:3:initial_magmoms:R:1 pbc="T T T"
Si       1.35563751       1.35731538      -1.35765752       0.00000000
Si       1.35755973      -1.35733167       1.35734985       0.00000000
Si      -1.35751086       1.35783666       1.35721310       0.00000000
Si      -1.35889551      -1.35883035      -1.35697380       0.00000000
Si      -0.00148239      -2.71372178      -2.71363993       0.00000000
Si      -0.00151497      -2.71508362       2.71357156       0.00000000
Si       2.71393029      -0.00188964       2.71500737       0.00000000
Si       2.71443528      -2.71483439       0.00000000       0.00000000
Si       2.71516833       2.71451673       0.00010256       0.00000000
Si      -2.71440270       0.00162900      -2.71586201       0.00000000
