10
Lattice="16.28999089631971 0.0 0.0 0.0 16.28999089631971 0.0 0.0 0.0 34.185847837958455" Properties=species:S:1:pos:R:3:initial_magmoms:R:1 pbc="T T T"
Si       0.75267945       1.89330525       1.13329568       0.00000000
Si      -1.14479604      -1.47497805       1.42705483       0.00000000
Si       1.38181554      -1.29414276      -1.42637111       0.00000000
Si      -1.34869797       1.40958999      -1.43683199       0.00000000
Si       2.00875248      -0.29620107       2.78625071       0.00000000
Si      -2.39883282       0.13709664       2.48045813       0.00000000
Si      -2.69042382      -2.58188355      -0.01316156       0.00000000
Si       2.67810858       2.74462065       0.01613573       0.00000000
Si       0.00990432      -2.64600099      -2.80371969       0.00000000
Si      -2.72653875       2.72864016      -0.01931501       0.00000000
