10
Lattice="16.28999089631971 0.0 0.0 0.0 16.28999089631971 0.0 0.0 0.0 34.185847837958455" Properties=species:S:1:pos:R:3:initial_magmoms:R:1 pbc="T T T"
Si      -0.63897525       1.83418884       1.35526451       0.00000000
Si       2.17350954      -0.68698188       0.69305008       0.00000000
Si      -1.49674149      -1.87696638       0.07770448       0.00000000
Si      -0.00664632       0.93304233      -2.21712440       0.00000000
Si      -2.81520522       2.31414111       0.66836788       0.00000000
Si       0.79314381       3.62118555       0.70535699       0.00000000
Si      -1.36114353      -2.70951570       2.30484534       0.00000000
Si       2.96243424      -2.42427780      -0.66238536       0.00000000
Si       2.63345769       2.83628448      -0.49538740       0.00000000
Si      -3.66806817      -1.18206756      -0.63072925       0.00000000
