10
Lattice="16.28999089631971 0.0 0.0 0.0 16.28999089631971 0.0 0.0 0.0 34.185847837958455" Properties=species:S:1:pos:R:3:initial_magmoms:R:1 pbc="T T T"
Si       1.35653346       1.35630540       1.35704217       0.00000000
Si      -1.35677781       1.35654975      -1.35717892       0.00000000
Si      -1.35883035      -1.35651717       1.35731566       0.00000000
Si       1.35816246      -1.35837423      -1.35700799       0.00000000
Si      -2.71505430       0.00201996       2.71052902       0.00000000
Si       0.00364896       2.71042794       2.71589620       0.00000000
Si      -0.00058644       2.71394658      -2.71507574       0.00000000
Si      -2.71490769      -0.00087966      -2.71415272       0.00000000
Si      -2.71471221       2.71441899      -0.00044442       0.00000000
Si      -2.71451673      -2.71505430       0.00010256       0.00000000
