10
Lattice="16.28999089631971 0.0 0.0 0.0 16.28999089631971 0.0 0.0 0.0 34.185847837958455" Properties=species:S:1:pos:R:3:initial_magmoms:R:1 pbc="T T T"
Si      -1.35627282      -1.33778367      -1.37584440       0.00000000
Si       1.36243044       1.37062431      -1.37047722       0.00000000
Si      -1.37784078       1.31905017       1.41751697       0.00000000
Si       1.34869797      -1.40958999       1.43683199       0.00000000
Si       2.10137742       0.48371526       2.57012766       0.00000000
Si       0.27720693       2.21837220       2.86610890       0.00000000
Si      -2.69697240      -2.69278587      -0.01938339       0.00000000
Si      -0.00004887      -2.69632080      -2.72905776       0.00000000
Si      -2.70625770       2.72756502       0.00673462       0.00000000
Si       2.73051351      -2.70373275       0.01046088       0.00000000
