10
Lattice="16.28999089631971 0.0 0.0 0.0 16.28999089631971 0.0 0.0 0.0 34.185847837958455" Properties=species:S:1:pos:R:3:initial_magmoms:R:1 pbc="T T T"
Si      -0.92755260      -1.38579030      -1.55757647       0.00000000
Si       1.84274109       1.40463783      -0.40558113       0.00000000
Si      -1.74482190       1.44845793      -0.79068492       0.00000000
Si       0.00664632      -0.93304233       2.21712440       0.00000000
Si       2.64010401       1.90324215       1.72173700       0.00000000
Si      -0.63232893       0.90114651       3.57238891       0.00000000
Si      -0.65668248      -0.50720544      -3.64981990       0.00000000
Si      -2.33248365       2.76413607       1.03709665       0.00000000
Si       1.04231565       3.65892948      -0.77533546       0.00000000
Si      -1.49009517      -2.81000871       2.29482888       0.00000000
