10
Lattice="16.28999089631971 0.0 0.0 0.0 16.28999089631971 0.0 0.0 0.0 34.185847837958455" Properties=species:S:1:pos:R:3:initial_magmoms:R:1 pbc="T T T"
Si       2.11041837       0.04582377       0.98793737       0.00000000
Si       0.16104294       0.38714814      -2.29482888       0.00000000
Si      -1.07093718      -2.17342809      -0.07045707       0.00000000
Si      -0.97845885       1.76230107       1.44825007       0.00000000
Si       1.19075013       0.28176813       3.13104937       0.00000000
Si      -3.29931144      -1.57973904      -0.48817418       0.00000000
Si       2.73714354      -2.19496347       1.15312348       0.00000000
Si      -2.01518703       0.86710041      -2.98172550       0.00000000
Si      -0.99608463      -2.91475341       2.10721684       0.00000000
Si      -0.81096507      -1.04738184       3.51567456       0.00000000
