10
Lattice="16.28999089631971 0.0 0.0 0.0 16.28999089631971 0.0 0.0 0.0 34.185847837958455" Properties=species:S:1:pos:R:3:initial_magmoms:R:1 pbc="T T T"
Si       1.33550307       1.36750870       1.36432376       0.00000000
Si      -1.35927018       1.35374202      -1.36155471       0.00000000
Si       1.35682668      -1.36275624      -1.36087099       0.00000000
Si      -1.35870003      -1.38289068       1.37864764       0.00000000
Si       2.55593358      -0.12937518       2.70208511       0.00000000
Si      -2.71524978       2.70953918      -0.00174348       0.00000000
Si       2.71477737       2.71382345      -0.00458091       0.00000000
Si      -0.00019548       2.71149398      -2.71777642       0.00000000
Si      -2.71477737      -2.71640637      -0.00082046       0.00000000
Si       2.71438641      -0.00349746      -2.71784479       0.00000000
