10
Lattice="16.28999089631971 0.0 0.0 0.0 16.28999089631971 0.0 0.0 0.0 34.185847837958455" Properties=species:S:1:pos:R:3:initial_magmoms:R:1 pbc="T T T"
Si      -1.37489229      -1.91967876       0.38835145       0.00000000
Si      -0.77069619       1.69676626       1.54144074       0.00000000
Si      -0.77972085       0.96848937      -2.08967949       0.00000000
Si       2.34896913      -0.73448352       0.04905672       0.00000000
Si      -3.26992428      -0.71983881       1.13763728       0.00000000
Si       2.31409224      -2.70619254      -1.16915665       0.00000000
Si      -2.32070598       0.51673509       2.92583161       0.00000000
Si       0.58702644       0.07648155      -3.77576063       0.00000000
Si      -0.57809952       3.34973618      -1.80621028       0.00000000
Si      -0.21727602      -3.51218916       1.71636982       0.00000000
