10
Lattice="16.28999089631971 0.0 0.0 0.0 16.28999089631971 0.0 0.0 0.0 34.185847837958455" Properties=species:S:1:pos:R:3:initial_magmoms:R:1 pbc="T T T"
Si       1.35622203       1.33255295      -1.35706610       0.00000000
Si       1.35090737      -1.35908067       1.35762333       0.00000000
Si      -1.36203948       1.35597797       1.35803356       0.00000000
Si      -1.38706092      -1.34999370      -1.37780325       0.00000000
Si      -0.08250885       2.54076596      -2.75508004       0.00000000
Si       2.69971631      -0.08201689      -2.71782086       0.00000000
Si       2.71007675      -2.71387395      -0.00468346       0.00000000
Si       2.71068599      -0.00029974       2.71398179       0.00000000
Si      -0.00397476       2.71454768       2.71418691       0.00000000
Si       2.71130664       2.71803374      -0.00010256       0.00000000
