10
Lattice="16.28999089631971 0.0 0.0 0.0 16.28999089631971 0.0 0.0 0.0 34.185847837958455" Properties=species:S:1:pos:R:3:initial_magmoms:R:1 pbc="T T T"
Si       1.43873088      -1.20821301       1.39801394       0.00000000
Si       1.70418391       0.99010620      -1.32628314       0.00000000
Si      -1.26586332       1.51179345       1.38247304       0.00000000
Si      -1.48639734      -1.41374394      -1.58428388       0.00000000
Si       0.17961354       1.59472584      -3.24561445       0.00000000
Si       0.08250885      -2.54076596       2.75508004       0.00000000
Si       0.35179884      -2.86119352      -2.44518656       0.00000000
Si      -2.66967036       2.71733490      -0.08880463       0.00000000
Si      -2.63682972       0.17379801       2.75248191       0.00000000
Si       2.78222516      -2.62278285       0.03725918       0.00000000
