10
Lattice="16.28999089631971 0.0 0.0 0.0 16.28999089631971 0.0 0.0 0.0 34.185847837958455" Properties=species:S:1:pos:R:3:initial_magmoms:R:1 pbc="T T T"
Si       1.35615879       1.35733886       1.35745240       0.00000000
Si      -1.35770634       1.35748872      -1.35728148       0.00000000
Si       1.35734796      -1.35792300      -1.35724729       0.00000000
Si      -1.35755973      -1.35925878       1.35697380       0.00000000
Si       2.71260476      -0.00102831      -2.71408435       0.00000000
Si      -0.00034209       2.71403033      -2.71367412       0.00000000
Si       0.00123804      -2.71435872       2.71340063       0.00000000
Si      -2.71458189       2.71499144       0.00006837       0.00000000
Si      -2.71505430      -2.71483113      -0.00023930       0.00000000
Si       2.71528322      -2.71501032       0.00006837       0.00000000
