10
Lattice="16.28999089631971 0.0 0.0 0.0 16.28999089631971 0.0 0.0 0.0 34.185847837958455" Properties=species:S:1:pos:R:3:initial_magmoms:R:1 pbc="T T T"
Si       1.35225801      -1.35688787      -1.36217005       0.00000000
Si      -1.37754756      -1.34983430       1.35478591       0.00000000
Si      -1.36254447       1.36042653      -1.36107611       0.00000000
Si       1.37457531       1.34640898       1.38459598       0.00000000
Si      -0.15374502       2.53512612       2.75001369       0.00000000
Si       2.71222703      -2.71078235      -0.00249557       0.00000000
Si      -2.71746522      -2.71127105      -0.00512788       0.00000000
Si       2.71151027       0.00285872      -2.71825502       0.00000000
Si      -0.00342004      -2.71192265      -2.71846014       0.00000000
Si       2.71271573       2.71842120      -0.00598253       0.00000000
