10
Lattice="16.28999089631971 0.0 0.0 0.0 16.28999089631971 0.0 0.0 0.0 34.185847837958455" Properties=species:S:1:pos:R:3:initial_magmoms:R:1 pbc="T T T"
Si      -1.30592043       1.27711971       1.46411231       0.00000000
Si      -1.35762489      -1.33568226      -1.36350330       0.00000000
Si       1.36080395       1.37383344      -1.36107611       0.00000000
Si       1.20694239      -1.52096472       1.39177501       0.00000000
Si       2.19038176       0.35057709       2.52325884       0.00000000
Si      -0.00185706      -2.69566431      -2.71931479       0.00000000
Si      -2.73689919      -2.68199700       0.00540137       0.00000000
Si      -2.70141957       2.72828178       0.01989617       0.00000000
Si       0.17471025       2.51864577       2.89694455       0.00000000
Si       2.71423395       0.01881495      -2.72092152       0.00000000
