10
Lattice="16.28999089631971 0.0 0.0 0.0 16.28999089631971 0.0 0.0 0.0 34.185847837958455" Properties=species:S:1:pos:R:3:initial_magmoms:R:1 pbc="T T T"
Si      -1.49607360       1.37325189       1.10071654       0.00000000
Si       0.63242667      -1.75513577       1.37786137       0.00000000
Si      -0.92636343      -0.84798084      -1.99867671       0.00000000
Si       1.99306914       1.29760113      -0.14347808       0.00000000
Si       0.51896682       3.17994321      -1.08611918       0.00000000
Si       2.46125188      -2.45063732      -0.02061408       0.00000000
Si       3.34683656      -0.46020716       0.93108627       0.00000000
Si       0.95882940      -1.17987071      -3.42832967       0.00000000
Si      -3.68830035       0.72157044       0.51268545       0.00000000
Si      -2.52317439      -2.55168419      -1.45686491       0.00000000
