10
Lattice="16.28999089631971 0.0 0.0 0.0 16.28999089631971 0.0 0.0 0.0 34.185847837958455" Properties=species:S:1:pos:R:3:initial_magmoms:R:1 pbc="T T T"
Si      -0.37662480      -0.23921865      -2.27014668       0.00000000
Si       2.20136544       0.59794074       0.53182953       0.00000000
Si      -0.92732454      -1.49459610       1.54838047       0.00000000
Si      -0.32162976       2.39373405      -0.18210811       0.00000000
Si       0.13825323       2.09636010      -2.64643052       0.00000000
Si      -2.02393476       0.18668340       2.77035429       0.00000000
Si       1.67198931       2.28330414       2.17179394       0.00000000
Si      -2.76144822      -2.54387002       0.48947324       0.00000000
Si       3.26365982       1.21619511      -1.53904773       0.00000000
Si       3.44836072      -1.14530103       1.38220297       0.00000000
