10
Lattice="16.28999089631971 0.0 0.0 0.0 16.28999089631971 0.0 0.0 0.0 34.185847837958455" Properties=species:S:1:pos:R:3:initial_magmoms:R:1 pbc="T T T"
Si       1.35675611       1.35492075      -1.35635846       0.00000000
Si       1.35736932      -1.35731538       1.35731566       0.00000000
Si      -1.35783666       1.35715248       1.35731566       0.00000000
Si      -1.35806472      -1.35856971      -1.35615334       0.00000000
Si       2.71452717      -0.00078192       2.71336645       0.00000000
Si      -0.00149868       2.71353933       2.71517830       0.00000000
Si       0.00397476      -2.71454768      -2.71418691       0.00000000
Si      -2.71469592       2.71423980       0.00034186       0.00000000
Si       2.71466075      -2.71484742      -0.00020512       0.00000000
Si       2.71528140       0.00348606      -2.71428946       0.00000000
