10
Lattice="16.28999089631971 0.0 0.0 0.0 16.28999089631971 0.0 0.0 0.0 34.185847837958455" Properties=species:S:1:pos:R:3:initial_magmoms:R:1 pbc="T T T"
Si       1.40999791       1.83642057      -0.55562290       0.00000000
Si      -1.45679841      -0.25868520      -1.88268406       0.00000000
Si      -1.50016239       0.52888743       1.81055189       0.00000000
Si       1.47410232      -1.88234208       0.94264110       0.00000000
Si       0.51440562       1.74035844       2.77616588       0.00000000
Si       2.67360344      -1.61904681      -1.22795634       0.00000000
Si       1.62524420      -0.35127756       2.91793467       0.00000000
Si      -0.51896682      -3.17994321       1.08611918       0.00000000
Si      -2.01504042      -1.80669132       2.18683572       0.00000000
Si       3.36690584       0.61110306      -1.01255119       0.00000000
