10
Lattice="16.28999089631971 0.0 0.0 0.0 16.28999089631971 0.0 0.0 0.0 34.185847837958455" Properties=species:S:1:pos:R:3:initial_magmoms:R:1 pbc="T T T"
Si       1.13111244      -2.03598936       0.64201058       0.00000000
Si      -0.11515401       1.80822258      -1.73366787       0.00000000
Si      -1.82428452      -0.62825643      -1.60618877       0.00000000
Si       2.19564765       2.05648218       0.93221441       0.00000000
Si      -0.89697627      -0.60859440       3.16509849       0.00000000
Si       0.08441478       3.58407693       0.28210177       0.00000000
Si       2.72430702      -2.27051649      -1.05124959       0.00000000
Si      -0.65236563      -2.12517711      -2.97003393       0.00000000
Si       2.13403887       0.60064488      -3.06924132       0.00000000
Si       2.58791085      -1.77730416       2.52469465       0.00000000
