10
Lattice="16.28999089631971 0.0 0.0 0.0 16.28999089631971 0.0 0.0 0.0 34.185847837958455" Properties=species:S:1:pos:R:3:initial_magmoms:R:1 pbc="T T T"
Si       1.00565242       1.52572140      -1.47539365       0.00000000
Si       1.11083858      -2.09163600       0.14176879       0.00000000
Si      -0.48475782       0.78705135       2.20676608       0.00000000
Si      -2.01456801      -1.21147101      -0.96561400       0.00000000
Si      -2.47445100      -0.91409706       1.49870841       0.00000000
Si      -0.51440562      -1.74035844      -2.77616588       0.00000000
Si       1.84037157       1.58698809       2.38470352       0.00000000
Si      -1.05984369       2.66778072      -1.89909328       0.00000000
Si       0.89559229       0.09606213      -3.33178878       0.00000000
Si       0.04854420      -2.70989037       2.21264605       0.00000000
