10
Lattice="16.28999089631971 0.0 0.0 0.0 16.28999089631971 0.0 0.0 0.0 34.185847837958455" Properties=species:S:1:pos:R:3:initial_magmoms:R:1 pbc="T T T"
Si      -1.33110477      -1.36257705       1.37318816       0.00000000
Si       1.17542124      -1.56545271      -1.32079832       0.00000000
Si       1.38706092       1.34999370       1.37780325       0.00000000
Si      -1.58065128       1.24305310      -1.45773665       0.00000000
Si      -2.69013060       2.71230848       0.01827918       0.00000000
Si      -2.69076591      -0.00972935       2.73440101       0.00000000
Si       2.74328295       2.68254665       0.02073715       0.00000000
Si      -2.70192456      -2.73305475      -0.00480995       0.00000000
Si       0.02502144       2.70597167       2.73583682       0.00000000
Si      -0.43067502      -2.38754385      -2.99325096       0.00000000
