10
Lattice="16.28999089631971 0.0 0.0 0.0 16.28999089631971 0.0 0.0 0.0 34.185847837958455" Properties=species:S:1:pos:R:3:initial_magmoms:R:1 pbc="T T T"
Si       0.11006013       1.42965927       1.85639513       0.00000000
Si       1.95690793      -1.22531751      -0.45692830       0.00000000
Si      -1.40999791      -1.83642057       0.55562290       0.00000000
Si      -1.80226111       1.99736577      -1.03685734       0.00000000
Si      -0.16724780      -0.28012284      -3.43246616       0.00000000
Si      -0.89559229      -0.09606213       3.33178878       0.00000000
Si      -1.95543598       2.57171859       1.43269550       0.00000000
Si       1.26360553      -3.45546738      -0.67233345       0.00000000
Si       0.34668052       3.35168379      -1.63719535       0.00000000
Si      -2.86679632      -2.09510577      -1.32706117       0.00000000
