10
Lattice="16.28999089631971 0.0 0.0 0.0 16.28999089631971 0.0 0.0 0.0 34.185847837958455" Properties=species:S:1:pos:R:3:initial_magmoms:R:1 pbc="T T T"
Si      -1.01540457       1.66832406       1.25629642       0.00000000
Si      -1.48910148      -1.20594870      -1.38702318       0.00000000
Si       1.13710716       1.57804488      -1.47194087       0.00000000
Si       1.73200167      -1.27922112       1.46171930       0.00000000
Si       3.32767233       0.75960270       1.18542912       0.00000000
Si      -1.19433393       0.07626978       3.41961227       0.00000000
Si      -0.04730616      -2.37873096      -2.81144570       0.00000000
Si       2.55720420       2.73382105       0.02054571       0.00000000
Si       0.61867791       3.47243246       1.29567854       0.00000000
Si      -2.50115031      -2.88267840       0.06044061       0.00000000
