10
Lattice="16.28999089631971 0.0 0.0 0.0 16.28999089631971 0.0 0.0 0.0 34.185847837958455" Properties=species:S:1:pos:R:3:initial_magmoms:R:1 pbc="T T T"
Si       1.44019794      -1.27744551      -1.31072032       0.00000000
Si       1.37855495       1.16682012       1.47310319       0.00000000
Si      -1.29396357       1.44997290      -1.31314752       0.00000000
Si      -0.98407890      -1.56916683       1.49180286       0.00000000
Si      -0.60300693       1.85857497       2.69083796       0.00000000
Si       2.14434134      -0.70977159       2.76837151       0.00000000
Si      -2.19867759      -0.18024885       2.96712814       0.00000000
Si       0.08228079      -2.62700685      -2.66977946       0.00000000
Si      -2.63388123       0.08853615      -2.67306131       0.00000000
Si      -2.68222995      -2.66704767       0.15270827       0.00000000
