10
Lattice="16.28999089631971 0.0 0.0 0.0 16.28999089631971 0.0 0.0 0.0 34.185847837958455" Properties=species:S:1:pos:R:3:initial_magmoms:R:1 pbc="T T T"
Si      -1.53282384      -1.41398829       1.03586595       0.00000000
Si       0.78818255       1.37104785       1.73291578       0.00000000
Si       1.57726689      -1.47095442      -1.01306398       0.00000000
Si      -1.15005771       0.82740168      -1.95365392       0.00000000
Si       3.21327485       0.32912316      -1.07319692       0.00000000
Si      -2.68358202      -2.38778820      -0.72874013       0.00000000
Si      -1.41913593       2.55717162       2.22026950       0.00000000
Si       3.01733873       0.52318593       2.22170531       0.00000000
Si      -1.40238981       3.15674136      -1.63873372       0.00000000
Si      -3.16747647      -0.54970605      -2.14123178       0.00000000
