10
Lattice="16.28999089631971 0.0 0.0 0.0 16.28999089631971 0.0 0.0 0.0 34.185847837958455" Properties=species:S:1:pos:R:3:initial_magmoms:R:1 pbc="T T T"
Si       1.42460937       0.04636134      -1.90117862       0.00000000
Si      -1.49263641       1.84017934      -0.23208785       0.00000000
Si      -1.48255290      -1.83440061       0.46075711       0.00000000
Si       1.40786325      -0.55320840       1.95782460       0.00000000
Si       1.67694147      -2.28297834      -2.21609882       0.00000000
Si      -3.18601449      -0.64545867       1.64837413       0.00000000
Si       0.09589923       1.42549133      -3.38522129       0.00000000
Si      -0.62791434       3.33338102       1.51696366       0.00000000
Si      -2.32797132      -2.57235390      -1.63217003       0.00000000
Si      -3.73757760       1.05970752       0.07917447       0.00000000
