10
Lattice="16.28999089631971 0.0 0.0 0.0 16.28999089631971 0.0 0.0 0.0 34.185847837958455" Properties=species:S:1:pos:R:3:initial_magmoms:R:1 pbc="T T T"
Si       1.09428075      -1.21230180      -1.69107228       0.00000000
Si       0.57912579      -0.32236281       2.26891599       0.00000000
Si      -2.17380928      -0.92261673       0.21390097       0.00000000
Si      -0.32246055       2.18504286      -0.99856917       0.00000000
Si      -2.35397668       0.67479696       1.87571015       0.00000000
Si       0.58710789       0.25374933      -3.59365252       0.00000000
Si       0.18293670      -2.60017722       2.61474022       0.00000000
Si       3.39718176      -1.44550944      -0.94623061       0.00000000
Si      -1.25295024       3.55670973       0.72740688       0.00000000
Si      -1.22375204       1.83703959      -3.19918180       0.00000000
