10
Lattice="16.28999089631971 0.0 0.0 0.0 16.28999089631971 0.0 0.0 0.0 34.185847837958455" Properties=species:S:1:pos:R:3:initial_magmoms:R:1 pbc="T T T"
Si      -1.05733244       1.87217712       0.98821086       0.00000000
Si       2.14911689       0.03531672       1.15032024       0.00000000
Si      -0.18485566       1.25043669      -2.25243840       0.00000000
Si      -2.14894163      -1.35431802       0.60033801       0.00000000
Si       0.54409252       3.38359590       0.15592174       0.00000000
Si       2.62341653       2.35317195       0.67838434       0.00000000
Si      -0.34668052      -3.35168379       1.63719535       0.00000000
Si       0.72212918      -0.38380869      -3.66441726       0.00000000
Si       1.68389078      -2.54190789      -2.27609502       0.00000000
Si       1.64585363      -0.37168893       3.42802199       0.00000000
