10
Lattice="16.28999089631971 0.0 0.0 0.0 16.28999089631971 0.0 0.0 0.0 34.185847837958455" Properties=species:S:1:pos:R:3:initial_magmoms:R:1 pbc="T T T"
Si       0.02101899      -2.21175846      -0.74282470       0.00000000
Si      -0.33746690      -0.12404835       2.35957691       0.00000000
Si      -1.83988938       1.14671826      -1.04813868       0.00000000
Si       2.18830900       0.78692103      -0.79646233       0.00000000
Si      -0.86018205       3.14528039      -1.75835007       0.00000000
Si       0.54811777       1.86638181       3.31127726       0.00000000
Si       0.51311056      -2.19983418      -3.11874246       0.00000000
Si       2.10034300      -3.24218241      -0.22036210       0.00000000
Si       0.39385147       3.88748537       0.06611547       0.00000000
Si      -2.23423770       0.36851238      -3.19627600       0.00000000
