10
Lattice="16.28999089631971 0.0 0.0 0.0 16.28999089631971 0.0 0.0 0.0 34.185847837958455" Properties=species:S:1:pos:R:3:initial_magmoms:R:1 pbc="T T T"
Si       2.31417369       0.25021440      -0.24364267       0.00000000
Si      -0.91098078       1.74579930      -1.29855016       0.00000000
Si      -0.55268223      -2.32381737      -0.08652443       0.00000000
Si      -0.60393383       0.84729177       2.15545310       0.00000000
Si      -2.52780794      -2.30628933      -1.28720045       0.00000000
Si      -2.73980600       2.44130085       0.09992529       0.00000000
Si       1.20505275       0.08019567       3.47591639       0.00000000
Si      -1.05657917       3.12157125       1.67722700       0.00000000
Si       3.22737480      -1.47727494       1.07398320       0.00000000
Si      -0.02539611       3.73622946      -0.34684981       0.00000000
