10
Lattice="10.86 0.0 0.0 0.0 10.86 0.0 0.0 0.0 10.86" Properties=species:S:1:pos:R:3:initial_magmoms:R:1 pbc="T T T"
Si      -1.27514862      -1.28780052       1.41968436       0.00000000
Si      -1.27514862       1.42719948      -1.29531564       0.00000000
Si       1.43985138      -1.28780052      -1.29531564       0.00000000
Si       1.21153074       1.51093008       1.30619736       0.00000000
Si      -2.63264862      -2.64530052       0.06218436       0.00000000
Si      -2.63264862       0.06969948      -2.65281564       0.00000000
Si       0.08235138      -2.64530052      -2.65281564       0.00000000
Si      -2.63264862       0.06969948       2.77718436       0.00000000
Si      -2.63264862       2.78469948       0.06218436       0.00000000
Si       2.70115350       0.42789486       2.69259582       0.00000000
