10
Lattice="10.86 0.0 0.0 0.0 10.86 0.0 0.0 0.0 10.86" Properties=species:S:1:pos:R:3:initial_magmoms:R:1 pbc="T T T"
Si       1.36473276      -1.16198742      -1.54106658       0.00000000
Si       1.36473276       1.55301258       1.17393342       0.00000000
Si      -1.35026724       1.55301258      -1.54106658       0.00000000
Si       0.00076020      -2.25033318       2.45503332       0.00000000
Si      -2.25316764       0.21594024       2.80978608       0.00000000
Si       2.72223276      -2.51948742      -0.18356658       0.00000000
Si      -2.76061200      -2.48374716      -0.04976052       0.00000000
Si       2.72223276       0.19551258       2.53143342       0.00000000
Si       0.00723276      -2.51948742      -2.89856658       0.00000000
Si      -0.10000974       2.98636968       2.50395762       0.00000000
