10
Lattice="10.86 0.0 0.0 0.0 10.86 0.0 0.0 0.0 10.86" Properties=species:S:1:pos:R:3:initial_magmoms:R:1 pbc="T T T"
Si      -1.24784658      -1.23599832       1.42268172       0.00000000
Si      -1.24784658       1.47900168      -1.29231828       0.00000000
Si       1.46715342       1.47900168       1.42268172       0.00000000
Si      -2.60534658      -2.59349832       0.06518172       0.00000000
Si      -2.60534658       0.12150168      -2.64981828       0.00000000
Si       2.74986060      -2.56981266       0.13382778       0.00000000
Si       0.10965342      -2.59349832       2.78018172       0.00000000
Si      -2.60534658       0.12150168       2.78018172       0.00000000
Si       0.31498344       2.80950372      -2.56301430       0.00000000
Si      -2.60534658       2.83650168       0.06518172       0.00000000
