10
Lattice="10.86 0.0 0.0 0.0 10.86 0.0 0.0 0.0 10.86" Properties=species:S:1:pos:R:3:initial_magmoms:R:1 pbc="T T T"
Si       1.15216998       1.38449796       1.27069602       0.00000000
Si       1.33263060      -1.49150154      -1.34046066       0.00000000
Si      -1.56283002      -1.33050204       1.27069602       0.00000000
Si      -1.56283002       1.38449796      -1.44430398       0.00000000
Si       2.50966998       2.74199796      -0.08680398       0.00000000
Si       2.60118720       0.05690640       2.67073464       0.00000000
Si       2.51132070       0.01662666      -2.82775938       0.00000000
Si      -0.20533002       2.74199796       2.62819602       0.00000000
Si      -0.31498344      -2.80950372       2.56301430       0.00000000
Si      -0.27650646      -2.65278306      -2.82698832       0.00000000
