10
Lattice="10.86 0.0 0.0 0.0 10.86 0.0 0.0 0.0 10.86" Properties=species:S:1:pos:R:3:initial_magmoms:R:1 pbc="T T T"
Si       1.31407086      -1.37522352      -1.32076062       0.00000000
Si       1.31407086       1.33977648       1.39423938       0.00000000
Si      -1.40092914      -1.37522352       1.39423938       0.00000000
Si      -0.05504934       2.63749218      -2.57572050       0.00000000
Si       2.67157086      -0.01772352      -2.67826062       0.00000000
Si       2.67157086       2.69727648       0.03673938       0.00000000
Si      -0.05062932       2.79364812       2.59109826       0.00000000
Si       2.67157086      -2.73272352       0.03673938       0.00000000
Si      -0.04342914      -2.73272352      -2.67826062       0.00000000
Si       2.67157086      -0.01772352       2.75173938       0.00000000
