10
Lattice="10.86 0.0 0.0 0.0 10.86 0.0 0.0 0.0 10.86" Properties=species:S:1:pos:R:3:initial_magmoms:R:1 pbc="T T T"
Si       1.31211606      -1.42074864      -1.12896216       0.00000000
Si      -1.03105926       1.57308186      -1.26069396       0.00000000
Si       1.31211606       1.29425136       1.58603784       0.00000000
Si      -1.40288394      -1.42074864       1.58603784       0.00000000
Si       2.36370072      -0.06017526      -2.42968608       0.00000000
Si      -2.71724802       0.17212014      -2.54229342       0.00000000
Si      -0.04538394      -2.77824864      -2.48646216       0.00000000
Si       2.86677936       2.50610790       0.42255174       0.00000000
Si       2.66961606      -2.77824864       0.22853784       0.00000000
Si      -2.92610754       2.52113814       0.21534294       0.00000000
