10
Lattice="10.86 0.0 0.0 0.0 10.86 0.0 0.0 0.0 10.86" Properties=species:S:1:pos:R:3:initial_magmoms:R:1 pbc="T T T"
Si       1.31666640      -1.28912544      -1.35539316       0.00000000
Si       1.31666640       1.42587456       1.35960684       0.00000000
Si      -1.39833360       1.42587456      -1.35539316       0.00000000
Si      -0.02561874      -2.57250594      -2.49700722       0.00000000
Si      -2.58007536       0.03940008       2.73388554       0.00000000
Si       2.67416640      -2.64662544       0.00210684       0.00000000
Si       2.67416640       0.06837456      -2.71289316       0.00000000
Si       2.67416640       0.06837456       2.71710684       0.00000000
Si       2.67416640       2.78337456       0.00210684       0.00000000
Si      -0.04083360       2.78337456      -2.71289316       0.00000000
