10
Lattice="10.86 0.0 0.0 0.0 10.86 0.0 0.0 0.0 10.86" Properties=species:S:1:pos:R:3:initial_magmoms:R:1 pbc="T T T"
Si      -1.26514656       1.31527632      -1.31980494       0.00000000
Si       1.44985344       1.31527632       1.39519506       0.00000000
Si       1.44985344      -1.39972368      -1.31980494       0.00000000
Si      -2.54895060      -0.13873650       2.44074156       0.00000000
Si      -2.62264656      -0.04222368      -2.67730494       0.00000000
Si      -2.59446486      -2.73066012      -0.02575992       0.00000000
Si       0.09235344       2.67277632      -2.67730494       0.00000000
Si       0.23365290       2.66111268       2.74228032       0.00000000
Si       0.09235344      -2.75722368      -2.67730494       0.00000000
Si      -2.69591898       2.75374848       0.12469452       0.00000000
