10
Lattice="10.86 0.0 0.0 0.0 10.86 0.0 0.0 0.0 10.86" Properties=species:S:1:pos:R:3:initial_magmoms:R:1 pbc="T T T"
Si       1.12877754      -1.50927936       1.55970234       0.00000000
Si       1.13774790       0.51190782      -2.15405928       0.00000000
Si      -1.62677370       1.18635726       1.67737044       0.00000000
Si      -0.42152004       2.58738414      -2.63543964       0.00000000
Si      -0.17988504      -2.80084830      -2.46778296       0.00000000
Si       2.53511496      -2.80084830       0.24721704       0.00000000
Si      -2.89488504      -0.08584830      -2.46778296       0.00000000
Si       2.53511496      -0.08584830       2.96221704       0.00000000
Si      -2.89488504       2.62915170       0.24721704       0.00000000
Si      -0.17988504       2.62915170       2.96221704       0.00000000
