10
Lattice="10.86 0.0 0.0 0.0 10.86 0.0 0.0 0.0 10.86" Properties=species:S:1:pos:R:3:initial_magmoms:R:1 pbc="T T T"
Si      -0.02080776      -1.84186686      -1.58599440       0.00000000
Si      -1.13774790      -0.51190782       2.15405928       0.00000000
Si      -1.55926794       2.07547632      -0.48138036       0.00000000
Si      -1.31763294      -0.59775612      -3.02872368       0.00000000
Si      -1.31763294      -3.31275612      -0.31372368       0.00000000
Si      -2.88687036       0.45976896      -2.06657112       0.00000000
Si       2.72406810      -2.13632490       1.22508402       0.00000000
Si       3.15481914       1.02965832      -1.92803010       0.00000000
Si       0.00718932       3.50470662      -1.58539710       0.00000000
Si       1.39736706       2.11724388      -3.02872368       0.00000000
