10
Lattice="16.28999089631971 0.0 0.0 0.0 16.28999089631971 0.0 0.0 0.0 34.51530692428229" Properties=species:S:1:pos:R:3:initial_magmoms:R:1 pbc="T T T"
Si      -1.32349871       1.38066221       1.38505517       0.00000000
Si       1.40648349      -1.33063629       1.35733246       0.00000000
Si      -0.84898756      -1.82562423      -1.34288922       0.00000000
Si       0.67095741       1.94524103      -1.49575760       0.00000000
Si      -0.82353443       0.06120642      -2.76046818       0.00000000
Si       2.60128983       2.68430204      -0.07151230       0.00000000
Si      -2.59460834       2.73669068      -0.02705656       0.00000000
Si      -2.65172108      -2.74731243      -0.14612754       0.00000000
Si       0.03590153      -2.66944623       2.74032362       0.00000000
Si      -2.67895796       0.04333792       2.74605316       0.00000000
