10
Lattice="16.28999089631971 0.0 0.0 0.0 16.28999089631971 0.0 0.0 0.0 34.51530692428229" Properties=species:S:1:pos:R:3:initial_magmoms:R:1 pbc="T T T"
Si       1.43011050       1.68261758      -0.67411884       0.00000000
Si       0.45113037      -1.65841974      -1.65052290       0.00000000
Si      -2.31744376       0.42658623      -0.41142269       0.00000000
Si       0.55203063      -0.26433783       2.34258971       0.00000000
Si       1.02049845      -3.50135631      -0.39992908       0.00000000
Si      -0.76812726      -2.00410983       3.01746788       0.00000000
Si       3.63479910       0.73347354      -0.16563905       0.00000000
Si       0.65832288       3.61698992       0.59680451       0.00000000
Si      -3.44417419      -1.48963905       0.28792685       0.00000000
Si      -2.55931768      -0.00405621      -2.78897642       0.00000000
