10
Lattice="16.28999089631971 0.0 0.0 0.0 16.28999089631971 0.0 0.0 0.0 34.51530692428229" Properties=species:S:1:pos:R:3:initial_magmoms:R:1 pbc="T T T"
Si      -1.80273352      -0.92168820       1.19676168       0.00000000
Si       0.02545313       1.88683065      -1.41757896       0.00000000
Si       0.84898756       1.82562423       1.34288922       0.00000000
Si      -0.19197113      -1.36611198      -2.33050934       0.00000000
Si       1.04586035       0.51800571      -3.08542856       0.00000000
Si      -0.46545756      -2.21617305       2.69573814       0.00000000
Si       2.25547105       0.49498794       2.70022168       0.00000000
Si      -2.20195255       2.39234030      -2.07613139       0.00000000
Si       3.55474516      -1.12288599       1.14510949       0.00000000
Si       0.96590903      -3.62095749       1.15136712       0.00000000
