10
Lattice="16.28999089631971 0.0 0.0 0.0 16.28999089631971 0.0 0.0 0.0 34.51530692428229" Properties=species:S:1:pos:R:3:initial_magmoms:R:1 pbc="T T T"
Si       1.83277161       0.85227814      -1.29905130       0.00000000
Si      -1.22181516       1.46953882       1.45981192       0.00000000
Si       1.48605525      -1.26742716       1.45694714       0.00000000
Si      -1.90731465      -1.02167622      -1.28024045       0.00000000
Si      -2.56582161       0.10936943       2.84214728       0.00000000
Si       2.79166617       2.66338405       0.08588103       0.00000000
Si       0.14618646      -2.60189323       2.84794585       0.00000000
Si      -2.71862181       2.75258809       0.03107070       0.00000000
Si       3.67994358      -0.65116180      -1.04208604       0.00000000
Si      -2.61415404      -2.88022417      -0.09519672       0.00000000
