10
Lattice="16.28999089631971 0.0 0.0 0.0 16.28999089631971 0.0 0.0 0.0 34.51530692428229" Properties=species:S:1:pos:R:3:initial_magmoms:R:1 pbc="T T T"
Si      -1.35694071      -1.35768363      -1.35652135       0.00000000
Si      -1.35715248       1.35748480       1.35669393       0.00000000
Si       1.35720135      -1.35692396       1.35738423       0.00000000
Si       1.35659862       1.35759883      -1.35804003       0.00000000
Si      -0.00022806      -2.71239970      -2.71369849       0.00000000
Si      -2.71381626       0.00081450       2.71338785       0.00000000
Si       2.71306692       0.00005539       2.71452686       0.00000000
Si      -0.00089595       2.71499566       2.71428525       0.00000000
Si       2.71479366      -2.71487578      -0.00048321       0.00000000
Si      -2.71524978      -2.71456627      -0.00003452       0.00000000
