10
Lattice="16.28999089631971 0.0 0.0 0.0 16.28999089631971 0.0 0.0 0.0 34.51530692428229" Properties=species:S:1:pos:R:3:initial_magmoms:R:1 pbc="T T T"
Si      -1.22176629       1.50319233      -1.34205943       0.00000000
Si       1.49824017      -1.25628480      -1.34136912       0.00000000
Si       1.73068218       0.82644057       1.43932362       0.00000000
Si      -1.53653796      -1.16733325       1.49661906       0.00000000
Si      -2.98480041       0.88764210       1.04526214       0.00000000
Si      -2.57127876       0.12500946      -2.72142993       0.00000000
Si       0.14426424      -2.58540938      -2.72218926       0.00000000
Si      -2.74162329      -2.71924802       0.13291852       0.00000000
Si       0.84879045      -0.32775480       3.76251571       0.00000000
Si       2.75224437       2.74160700       0.13795776       0.00000000
