10
Lattice="16.28999089631971 0.0 0.0 0.0 16.28999089631971 0.0 0.0 0.0 34.51530692428229" Properties=species:S:1:pos:R:3:initial_magmoms:R:1 pbc="T T T"
Si       0.66156948      -2.11835812      -0.70469942       0.00000000
Si       1.51161426       0.09148464       1.79424472       0.00000000
Si       0.65493945       1.05060726      -1.99605583       0.00000000
Si      -2.13099264       1.02710079       0.61168061       0.00000000
Si       2.37856806       2.12623596       1.12154101       0.00000000
Si      -0.06784785       0.70889193       3.38087975       0.00000000
Si      -0.86227857      -3.39808490       0.49329304       0.00000000
Si      -0.62584551       0.01554066      -3.62407474       0.00000000
Si       0.19474695      -2.16747572      -3.05957658       0.00000000
Si      -1.54380330       2.33196237       2.54212281       0.00000000
