10
Lattice="16.28999089631971 0.0 0.0 0.0 16.28999089631971 0.0 0.0 0.0 34.51530692428229" Properties=species:S:1:pos:R:3:initial_magmoms:R:1 pbc="T T T"
Si      -0.70683939      -1.85854795       1.18504373       0.00000000
Si       1.90731465       1.02167622       1.28024045       0.00000000
Si      -0.89766045      -0.37904128      -2.36695753       0.00000000
Si      -2.00611350      -0.24067402       2.74015591       0.00000000
Si       0.83869065       2.97836749      -2.05832148       0.00000000
Si       0.53647857       1.07328131      -3.56515708       0.00000000
Si       0.68549949       2.49121504       2.74005236       0.00000000
Si      -3.41259699       1.08996227       1.38282345       0.00000000
Si      -1.45758033      -3.67079416      -0.29224127       0.00000000
Si      -0.81130716       3.77426431       1.31131115       0.00000000
