10
Lattice="16.28999089631971 0.0 0.0 0.0 16.28999089631971 0.0 0.0 0.0 34.51530692428229" Properties=species:S:1:pos:R:3:initial_magmoms:R:1 pbc="T T T"
Si      -1.35694071       1.35679410       1.35759133       0.00000000
Si       1.35731538       1.35677781      -1.35741875       0.00000000
Si       1.35847197      -1.35804843       1.35665941       0.00000000
Si      -1.35757602      -1.35879777      -1.35824712       0.00000000
Si       0.00180819      -2.71471873       2.71335334       0.00000000
Si      -2.71429844      -0.00177561       2.71383655       0.00000000
Si      -0.00003258       2.71329498       2.71545877       0.00000000
Si      -2.71434731       2.71443528      -0.00013806       0.00000000
Si       2.71472850      -0.00053757       2.71425074       0.00000000
Si      -2.71440433      -2.71541757       0.00017258       0.00000000
