10
Lattice="16.28999089631971 0.0 0.0 0.0 16.28999089631971 0.0 0.0 0.0 34.51530692428229" Properties=species:S:1:pos:R:3:initial_magmoms:R:1 pbc="T T T"
Si       1.35661491       1.35848826      -1.35703908       0.00000000
Si       1.35770634      -1.35729909       1.35766036       0.00000000
Si      -1.35830907      -1.35780408      -1.35690102       0.00000000
Si      -1.35757602       1.35769005       1.35807454       0.00000000
Si      -0.00182448      -2.71086777      -2.71756421       0.00000000
Si      -0.00123804       2.71352304       2.71528620       0.00000000
Si       2.71521720      -0.00013032       2.71407816       0.00000000
Si       2.71513575      -2.71471221       0.00034515       0.00000000
Si      -0.00089595      -2.71511946       2.71476847       0.00000000
Si      -2.71562445      -2.71458189       0.00051773       0.00000000
