10
Lattice="16.28999089631971 0.0 0.0 0.0 16.28999089631971 0.0 0.0 0.0 34.51530692428229" Properties=species:S:1:pos:R:3:initial_magmoms:R:1 pbc="T T T"
Si      -1.29989313      -0.46739268       1.79752367       0.00000000
Si       0.71781885       2.15809920      -0.27781386       0.00000000
Si       1.97781777      -1.16245440       0.62924891       0.00000000
Si      -1.41159366      -0.59368905      -1.83649148       0.00000000
Si      -1.43008281      -2.75980293       1.24855741       0.00000000
Si       0.50759640      -0.92678697       3.38740315       0.00000000
Si       1.79605395       2.05006392      -2.37686342       0.00000000
Si      -3.08430950       1.02638403       1.61279765       0.00000000
Si       0.97306686      -3.21922980       1.40615439       0.00000000
Si      -2.55681324      -2.49305418      -1.06089758       0.00000000
