10
Lattice="16.28999089631971 0.0 0.0 0.0 16.28999089631971 0.0 0.0 0.0 34.51530692428229" Properties=species:S:1:pos:R:3:initial_magmoms:R:1 pbc="T T T"
Si       1.35633798       1.35583299       1.35721166       0.00000000
Si      -1.35751086       1.35757602      -1.35776390       0.00000000
Si       1.35757602      -1.35769005      -1.35807454       0.00000000
Si      -1.35808101      -1.35897696       1.35790196       0.00000000
Si      -0.00109143       2.71419093      -2.71411268       0.00000000
Si       2.71419093       0.00079821      -2.71511362       0.00000000
Si      -2.71573848      -0.00060273      -2.71373301       0.00000000
Si      -2.71485882       2.71500543      -0.00075934       0.00000000
Si       2.71528236      -2.71498914      -0.00041418       0.00000000
Si       2.71507059       2.71523349      -0.00027612       0.00000000
