10
Lattice="16.28999089631971 0.0 0.0 0.0 16.28999089631971 0.0 0.0 0.0 34.51530692428229" Properties=species:S:1:pos:R:3:initial_magmoms:R:1 pbc="T T T"
Si      -1.35633798      -1.35583299      -1.35721166       0.00000000
Si      -1.35425286       1.35946566       1.36131898       0.00000000
Si       1.35873261       1.35940050      -1.35748778       0.00000000
Si       1.36192545      -1.35560493       1.36090480       0.00000000
Si       0.00123804      -2.71352304      -2.71528620       0.00000000
Si      -2.71384884       0.00174303      -2.71497556       0.00000000
Si      -2.71441899      -2.71480995       0.00069031       0.00000000
Si       2.71645524      -2.71365336      -0.00120804       0.00000000
Si       0.00125433       2.71639008      -2.71487201       0.00000000
Si       2.71652040       0.00193851      -2.71490653       0.00000000
