10
Lattice="16.28999089631971 0.0 0.0 0.0 16.28999089631971 0.0 0.0 0.0 34.51530692428229" Properties=species:S:1:pos:R:3:initial_magmoms:R:1 pbc="T T T"
Si       1.35425286      -1.35946566      -1.36131898       0.00000000
Si      -1.36065483       1.35736425      -1.36128447       0.00000000
Si      -1.34426709      -1.37547873       1.37267452       0.00000000
Si       1.35488817       1.35451350       1.38478940       0.00000000
Si       2.71096551       2.71480995       0.00355508       0.00000000
Si       2.71617831      -2.71507059      -0.00041418       0.00000000
Si       2.71298547      -0.00006516      -2.71880676       0.00000000
Si      -2.71710684       2.71494027       0.00075934       0.00000000
Si      -0.00193851       2.71430496      -2.71894482       0.00000000
Si      -0.00208512      -2.71529865      -2.71853064       0.00000000
