10
Lattice="16.28999089631971 0.0 0.0 0.0 16.28999089631971 0.0 0.0 0.0 34.51530692428229" Properties=species:S:1:pos:R:3:initial_magmoms:R:1 pbc="T T T"
Si       1.35436689       1.35731538       1.35793648       0.00000000
Si       1.35744570      -1.35738054      -1.35724617       0.00000000
Si      -1.35782037       1.35801585      -1.35721166       0.00000000
Si      -1.35871632      -1.35694071       1.35766036       0.00000000
Si       2.71210581      -0.00087966      -2.71394010       0.00000000
Si       0.00048870       2.71489849      -2.71369849       0.00000000
Si      -0.00123804      -2.71541268      -2.71369849       0.00000000
Si       2.71492398      -2.71437012       0.00013806       0.00000000
Si      -2.71500543      -2.71459818      -0.00034515       0.00000000
Si      -2.71484253       0.00039096      -2.71476847       0.00000000
