10
Lattice="16.28999089631971 0.0 0.0 0.0 16.28999089631971 0.0 0.0 0.0 34.51530692428229" Properties=species:S:1:pos:R:3:initial_magmoms:R:1 pbc="T T T"
Si       1.35397593       1.32912458       1.38082014       0.00000000
Si      -1.35637056       1.35472594      -1.35810906       0.00000000
Si       1.35438318      -1.36135530      -1.35638329       0.00000000
Si      -1.36769211      -1.36243044       1.37761022       0.00000000
Si      -0.14426424       2.58540938       2.72218926       0.00000000
Si      -2.71554300       2.71041884       0.00075934       0.00000000
Si       0.00029322       2.71139624      -2.71480298       0.00000000
Si       2.71464705      -0.00301252      -2.71411268       0.00000000
Si      -2.71534752      -0.00267101      -2.71431977       0.00000000
Si       2.71834488       2.71155914       0.00459054       0.00000000
