10
Lattice="16.28999089631971 0.0 0.0 0.0 16.28999089631971 0.0 0.0 0.0 34.51530692428229" Properties=species:S:1:pos:R:3:initial_magmoms:R:1 pbc="T T T"
Si      -0.61867791       1.02899043       2.01265770       0.00000000
Si      -0.57888144       1.54629567      -1.73101264       0.00000000
Si       2.42429409      -0.40031046       0.00124255       0.00000000
Si      -1.22854293      -2.21721561      -0.00707564       0.00000000
Si       1.06039755       2.64722274       1.82651655       0.00000000
Si       2.56634289      -2.17396566       1.60289175       0.00000000
Si       2.75152761      -1.54909755      -2.07588978       0.00000000
Si      -2.03163993       0.30455784      -3.24430260       0.00000000
Si       0.09532908      -0.34919244       3.87479407       0.00000000
Si       0.63319230      -2.44408644       2.97777525       0.00000000
