10
Lattice="16.28999089631971 0.0 0.0 0.0 16.28999089631971 0.0 0.0 0.0 34.51530692428229" Properties=species:S:1:pos:R:3:initial_magmoms:R:1 pbc="T T T"
Si      -1.43011050      -1.68261758       0.67411884       0.00000000
Si      -0.25871778       0.24766339      -2.38766672       0.00000000
Si      -0.77178762       1.93437234       1.27092334       0.00000000
Si       2.20468860      -0.94914404       0.50847979       0.00000000
Si      -0.97898013      -3.34103732      -0.97640406       0.00000000
Si       0.93597453       3.47604165       0.62686735       0.00000000
Si      -0.87807987      -1.94695541       3.01670854       0.00000000
Si       3.72853665       0.33058274      -0.68951267       0.00000000
Si       1.36559070      -1.10743397      -3.46916995       0.00000000
Si       3.06696717       2.44894086       0.01518674       0.00000000
