10
Lattice="16.28999089631971 0.0 0.0 0.0 16.28999089631971 0.0 0.0 0.0 34.51530692428229" Properties=species:S:1:pos:R:3:initial_magmoms:R:1 pbc="T T T"
Si      -1.25255439      -1.88038728       0.68385216       0.00000000
Si       2.29074867      -0.51873876       0.49291337       0.00000000
Si      -0.27275976       0.20575899      -2.40205961       0.00000000
Si      -0.75569310       2.08982781       1.24859193       0.00000000
Si       0.67844592       3.54215040       0.05039238       0.00000000
Si       0.34280676      -2.04405291      -3.11000347       0.00000000
Si      -3.47193005      -1.40426316      -0.14251378       0.00000000
Si      -1.31561298      -1.20192507       3.32330818       0.00000000
Si      -3.07375684       2.25121284       0.57005513       0.00000000
Si       3.64492008       1.21989294      -0.35692299       0.00000000
