10
Lattice="16.28999089631971 0.0 0.0 0.0 16.28999089631971 0.0 0.0 0.0 34.51530692428229" Properties=species:S:1:pos:R:3:initial_magmoms:R:1 pbc="T T T"
Si       1.14521958       1.89936513      -0.77559390       0.00000000
Si       0.45180315      -1.71776421      -1.58763598       0.00000000
Si      -2.25811070       0.54626886       0.53522916       0.00000000
Si       1.12673043      -0.26674875       2.30945499       0.00000000
Si      -0.71449732       3.34234962      -1.05130232       0.00000000
Si      -2.70706310       2.12749029      -1.08771599       0.00000000
Si       1.25692011       2.02566150       2.85842126       0.00000000
Si       2.55681324       2.49305418       1.06089758       0.00000000
Si      -0.81056759      -3.54051421      -0.90654504       0.00000000
Si       2.74190022      -2.20011111      -1.31178949       0.00000000
