10
Lattice="16.28999089631971 0.0 0.0 0.0 16.28999089631971 0.0 0.0 0.0 34.51530692428229" Properties=species:S:1:pos:R:3:initial_magmoms:R:1 pbc="T T T"
Si       0.06193458      -0.72800010       2.25926971       0.00000000
Si      -1.40354640      -1.62788739      -1.01371513       0.00000000
Si      -1.77070671       1.58231286       0.12884571       0.00000000
Si       2.35328598       0.46048572      -0.93995588       0.00000000
Si      -0.92944224       2.52276714       2.09211198       0.00000000
Si      -0.91947276      -1.32421410      -3.37394217       0.00000000
Si      -1.40489847      -3.52151423       0.42001700       0.00000000
Si      -1.40540346      -2.56435225       2.52013654       0.00000000
Si      -3.70773432      -0.85356342      -0.97181352       0.00000000
Si      -0.87690699       0.87255756       3.75074598       0.00000000
