10
Lattice="16.28999089631971 0.0 0.0 0.0 16.28999089631971 0.0 0.0 0.0 34.51530692428229" Properties=species:S:1:pos:R:3:initial_magmoms:R:1 pbc="T T T"
Si      -0.00135207      -1.89362683       1.43373214       0.00000000
Si       1.40354640       1.62788739       1.01371513       0.00000000
Si       0.48407364       0.30367329      -2.36022704       0.00000000
Si      -2.30418792       0.77432397       0.04190161       0.00000000
Si      -1.42229619       1.92851934      -2.28129049       0.00000000
Si      -0.36716031       3.21020025       1.14256084       0.00000000
Si      -0.00185706      -0.93646486       3.53385167       0.00000000
Si       1.46548098       0.89988729       3.27298484       0.00000000
Si      -0.31312638      -1.60314355      -3.50247724       0.00000000
Si      -2.59338429       2.54745789       1.64427563       0.00000000
