10
Lattice="16.28999089631971 0.0 0.0 0.0 16.28999089631971 0.0 0.0 0.0 34.51530692428229" Properties=species:S:1:pos:R:3:initial_magmoms:R:1 pbc="T T T"
Si       1.35751086       1.35716877       1.35641780       0.00000000
Si       1.35742941      -1.35741312      -1.35731520       0.00000000
Si      -1.35770634       1.35729909      -1.35766036       0.00000000
Si      -1.35860229      -1.35782037       1.35710811       0.00000000
Si       2.71225242      -0.00009774       2.71542426       0.00000000
Si       2.71428867      -2.71469592       0.00048321       0.00000000
Si       2.71466334       2.71489140       0.00010355       0.00000000
Si      -2.71339272      -0.00063531       2.71632166       0.00000000
Si       2.71578735      -0.00076563      -2.71407816       0.00000000
Si      -2.71485882      -2.71533123      -0.00048321       0.00000000
