10
Lattice="16.28999089631971 0.0 0.0 0.0 16.28999089631971 0.0 0.0 0.0 34.51530692428229" Properties=species:S:1:pos:R:3:initial_magmoms:R:1 pbc="T T T"
Si      -1.59951673       1.78761573       0.20814264       0.00000000
Si       1.17718056       0.40259106      -2.10298431       0.00000000
Si       1.93033242       0.73906101       1.42424529       0.00000000
Si      -0.67095741      -1.94524103       1.49575760       0.00000000
Si      -1.49449184      -1.88403461      -1.26471058       0.00000000
Si       1.30737024       2.69500131      -1.55401805       0.00000000
Si      -1.99445612      -0.56457882       2.88081277       0.00000000
Si      -3.26556575       0.79144965       1.46870103       0.00000000
Si       0.73280565       2.17205973       2.87359561       0.00000000
Si       3.11485977       2.23560702       0.03586142       0.00000000
