10
Lattice="16.28999089631971 0.0 0.0 0.0 16.28999089631971 0.0 0.0 0.0 34.51530692428229" Properties=species:S:1:pos:R:3:initial_magmoms:R:1 pbc="T T T"
Si       1.75528008       0.17958096       1.54000482       0.00000000
Si      -1.83197340       1.07929395       1.04329477       0.00000000
Si      -0.58600017      -2.30852106       0.29993818       0.00000000
Si       0.30605652       1.16062992      -2.09052428       0.00000000
Si      -2.15761050      -1.98233010       2.08199899       0.00000000
Si       0.50249763      -0.65712231      -3.53899446       0.00000000
Si      -1.85701113       2.10743730      -2.30769471       0.00000000
Si       1.04169663       1.53411075       3.27792053       0.00000000
Si      -2.38690854       2.92464144      -0.21396051       0.00000000
Si       3.75420969       0.60360966       0.46015833       0.00000000
