10
Lattice="16.28999089631971 0.0 0.0 0.0 16.28999089631971 0.0 0.0 0.0 34.51530692428229" Properties=species:S:1:pos:R:3:initial_magmoms:R:1 pbc="T T T"
Si      -1.34527707      -1.35237951      -1.38133787       0.00000000
Si       1.36765953       1.36458072      -1.38354685       0.00000000
Si      -1.32893820       1.35839052       1.48367581       0.00000000
Si       1.32699969      -1.41721371       1.47473634       0.00000000
Si       0.63508194       2.18905020       2.58858044       0.00000000
Si       2.32539750       0.14307507       3.01622533       0.00000000
Si      -2.70656721       2.71720458       0.00386572       0.00000000
Si      -2.72121192      -2.70492192       0.01601511       0.00000000
Si       2.72663649      -2.70396081      -0.00393475       0.00000000
Si       2.72849355       2.70664866      -0.03178862       0.00000000
