10
Lattice="16.28999089631971 0.0 0.0 0.0 16.28999089631971 0.0 0.0 0.0 34.51530692428229" Properties=species:S:1:pos:R:3:initial_magmoms:R:1 pbc="T T T"
Si       0.76141089       1.84674843      -1.25832525       0.00000000
Si      -0.32723352       1.14878709       2.07713233       0.00000000
Si      -1.96402014      -0.83065968      -1.10490462       0.00000000
Si       1.69031556      -2.04597513       0.42764489       0.00000000
Si       2.09341161       0.51759846      -2.62036905       0.00000000
Si      -0.63508194      -2.18905020      -2.58858044       0.00000000
Si       3.34805112      -0.92370816      -1.19153809       0.00000000
Si       0.28628046      -2.68027515       2.50829779       0.00000000
Si       2.65650804       2.58132969       0.04034842       0.00000000
Si      -0.18518472      -0.62486811       3.67878153       0.00000000
