10
Lattice="16.28999089631971 0.0 0.0 0.0 16.28999089631971 0.0 0.0 0.0 34.51530692428229" Properties=species:S:1:pos:R:3:initial_magmoms:R:1 pbc="T T T"
Si      -0.55493514       1.84534749      -1.25725527       0.00000000
Si       0.58508793       0.82556091       2.07140279       0.00000000
Si      -1.84974579      -1.39882230       0.15455963       0.00000000
Si       1.83197340      -1.07929395      -1.04329477       0.00000000
Si      -0.32563710      -3.06162405       1.03870423       0.00000000
Si      -0.02503773       1.02814335      -3.35098948       0.00000000
Si       2.87367003       0.45481680       2.23462577       0.00000000
Si       1.24597323      -3.38781501      -0.74335658       0.00000000
Si       3.58725348      -0.89971299       0.49671006       0.00000000
Si      -2.53889424      -1.85888448      -2.10992189       0.00000000
