10
Lattice="16.28999089631971 0.0 0.0 0.0 16.28999089631971 0.0 0.0 0.0 34.51530692428229" Properties=species:S:1:pos:R:3:initial_magmoms:R:1 pbc="T T T"
Si       1.63936044      -1.08747153      -1.29252994       0.00000000
Si      -1.92645540      -0.74293803      -1.13797031       0.00000000
Si       0.39614022       2.19919887      -0.77283267       0.00000000
Si      -0.53656002      -0.46776735       2.26517183       0.00000000
Si      -1.15763256      -2.95358877      -1.44501865       0.00000000
Si       0.94918572      -0.10275732      -3.38619511       0.00000000
Si      -1.62059436       2.83392243      -1.80718797       0.00000000
Si       1.13094954      -3.32433288      -1.28179567       0.00000000
Si      -2.56665240       0.94082895      -2.67818222       0.00000000
Si      -2.90245446      -0.60567849       2.42808417       0.00000000
