10
Lattice="16.28999089631971 0.0 0.0 0.0 16.28999089631971 0.0 0.0 0.0 34.51530692428229" Properties=species:S:1:pos:R:3:initial_magmoms:R:1 pbc="T T T"
Si       1.34591238       1.35519768       1.36428040       0.00000000
Si      -1.36635796      -1.35674523       1.36362460       0.00000000
Si       1.19752677      -1.43299872      -1.44935032       0.00000000
Si      -1.38173246       1.35136953      -1.36175387       0.00000000
Si      -2.33232238      -0.38444400      -2.66545297       0.00000000
Si      -0.73280565      -2.17205973      -2.87359561       0.00000000
Si       2.38205412       0.06354729      -2.83773419       0.00000000
Si       2.70366759       2.70298341      -0.01142112       0.00000000
Si       2.69433342      -2.71604799      -0.02060910       0.00000000
Si       2.70425403      -0.00276930       2.72383910       0.00000000
