10
Lattice="16.28999089631971 0.0 0.0 0.0 16.28999089631971 0.0 0.0 0.0 34.51530692428229" Properties=species:S:1:pos:R:3:initial_magmoms:R:1 pbc="T T T"
Si       1.55535291      -1.89679131       0.16991895       0.00000000
Si       0.65389689       1.90775448       1.46990562       0.00000000
Si      -1.92603186      -0.75324960       1.50454175       0.00000000
Si       1.86605208       0.24293277      -2.11261409       0.00000000
Si      -1.94290830       0.59898330      -2.89832097       0.00000000
Si       2.03613597       0.64560528       2.97222316       0.00000000
Si       3.25285236      -0.83828340       1.54226010       0.00000000
Si      -0.68294196      -2.07998865       2.99285642       0.00000000
Si       0.56542590      -3.51616392       1.60771151       0.00000000
Si      -1.23259914      -1.57485204      -3.49108719       0.00000000
