10
Lattice="16.28999089631971 0.0 0.0 0.0 16.28999089631971 0.0 0.0 0.0 34.51530692428229" Properties=species:S:1:pos:R:3:initial_magmoms:R:1 pbc="T T T"
Si      -0.73275678      -1.67987367      -1.54138544       0.00000000
Si       2.31829506      -0.51699573       0.39575273       0.00000000
Si      -0.15666093       2.15751276      -1.08436800       0.00000000
Si      -1.86605208      -0.24293277       2.11261409       0.00000000
Si      -0.31069917      -2.13972408       2.28253304       0.00000000
Si       0.02795364      -3.39136623      -0.19514965       0.00000000
Si       2.55409281       0.56366658       2.44870435       0.00000000
Si      -2.45478897       2.09468223      -1.63554325       0.00000000
Si       2.35149408      -2.94192513      -0.00721370       0.00000000
Si       3.55886001       1.34192133      -0.43144158       0.00000000
