10
Lattice="16.28999089631971 0.0 0.0 0.0 16.28999089631971 0.0 0.0 0.0 34.51530692428229" Properties=species:S:1:pos:R:3:initial_magmoms:R:1 pbc="T T T"
Si      -1.36284651       1.35871632       1.34800297       0.00000000
Si       1.38173246      -1.35136953       1.36175387       0.00000000
Si      -0.95058992      -1.73581353      -1.30369910       0.00000000
Si       0.75530051       1.87836732      -1.27016711       0.00000000
Si       0.17188068       0.66534876      -3.25058581       0.00000000
Si       1.95629705      -0.82842795      -3.06585979       0.00000000
Si      -2.61663894      -2.73197961      -0.04314071       0.00000000
Si       2.57925923      -2.78436825      -0.08759645       0.00000000
Si      -2.63683854       2.76684021      -0.27605703       0.00000000
Si      -2.70361125       0.00490329       2.72789810       0.00000000
