10
Lattice="16.28999089631971 0.0 0.0 0.0 16.28999089631971 0.0 0.0 0.0 34.51530692428229" Properties=species:S:1:pos:R:3:initial_magmoms:R:1 pbc="T T T"
Si      -1.39202937       1.26419197       1.38116184       0.00000000
Si       1.32747210      -1.46478118       1.35040524       0.00000000
Si      -1.94219154      -0.85924537      -1.16065309       0.00000000
Si       1.23608520       1.62646528      -1.57304086       0.00000000
Si       0.92595618      -1.50565279      -2.91375420       0.00000000
Si      -1.24385553      -0.67718996      -3.35762129       0.00000000
Si      -2.83046895       2.45530048      -0.03268601       0.00000000
Si      -0.04945644       2.61969916       2.72748046       0.00000000
Si       2.75333580       2.59689316      -0.04304061       0.00000000
Si       2.66898618      -0.09645961       2.73006911       0.00000000
