10
Lattice="16.28999089631971 0.0 0.0 0.0 16.28999089631971 0.0 0.0 0.0 34.51530692428229" Properties=species:S:1:pos:R:3:initial_magmoms:R:1 pbc="T T T"
Si       1.35545925       1.33732429      -1.36099799       0.00000000
Si      -1.35736425       1.35654649       1.35579653       0.00000000
Si       1.35707664      -1.35800684       1.35552041       0.00000000
Si      -1.34151408      -1.36832157      -1.37966388       0.00000000
Si      -2.66898618       0.09645961      -2.73006911       0.00000000
Si       2.67895796      -0.04333792      -2.74605316       0.00000000
Si      -2.71505430      -0.00080147       2.71238691       0.00000000
Si      -0.00003258       2.71457863       2.71287013       0.00000000
Si       2.71485949      -2.71278414      -0.00572954       0.00000000
Si       0.00017919      -2.71548828       2.71297367       0.00000000
