10
Lattice="16.28999089631971 0.0 0.0 0.0 16.28999089631971 0.0 0.0 0.0 34.51530692428229" Properties=species:S:1:pos:R:3:initial_magmoms:R:1 pbc="T T T"
Si       1.35736425      -1.35654649      -1.35579653       0.00000000
Si      -1.35769005      -1.35734796       1.35659038       0.00000000
Si       1.35733167       1.35803214       1.35707360       0.00000000
Si      -1.36107837       1.35961227      -1.35838518       0.00000000
Si      -2.70365130       0.00410508      -2.70470380       0.00000000
Si      -2.71384884       2.71438641       0.00031064       0.00000000
Si       2.71444089      -2.71455333      -0.00027612       0.00000000
Si       0.00047241      -2.71491150       2.71438880       0.00000000
Si       2.71510786       0.00001629       2.71431977       0.00000000
Si       2.71282350      -0.01922220      -2.71679452       0.00000000
