10
Lattice="16.28999089631971 0.0 0.0 0.0 16.28999089631971 0.0 0.0 0.0 34.51530692428229" Properties=species:S:1:pos:R:3:initial_magmoms:R:1 pbc="T T T"
Si       0.91795779      -1.27373302       1.86151509       0.00000000
Si       1.79374077      -0.42142719      -1.73643155       0.00000000
Si      -1.27094580       2.11452508       0.69541479       0.00000000
Si       0.62193591       0.58192930       3.26839430       0.00000000
Si       0.11862378      -1.56327541      -3.02240357       0.00000000
Si       0.48438315       2.78959897       2.39860808       0.00000000
Si      -1.65190374      -3.43470319       0.36089225       0.00000000
Si      -0.63267102      -2.86750168       2.55147646       0.00000000
Si      -1.76933835       3.11746780      -1.54124738       0.00000000
Si      -0.68149215      -3.48246547      -1.80667024       0.00000000
