10
Lattice="16.28999089631971 0.0 0.0 0.0 16.28999089631971 0.0 0.0 0.0 34.51530692428229" Properties=species:S:1:pos:R:3:initial_magmoms:R:1 pbc="T T T"
Si       0.13755276      -2.20766967       0.86978622       0.00000000
Si      -0.95597865       1.06982946       1.96547525       0.00000000
Si       1.52202357       1.60961490      -1.14207763       0.00000000
Si      -1.75532895      -0.67507389      -1.70319329       0.00000000
Si       0.10661805       3.53266569      -0.51665992       0.00000000
Si      -1.80011016      -2.21306166       2.26682856       0.00000000
Si       2.06726616      -2.03002722       2.22654918       0.00000000
Si      -0.48438315      -2.78959897      -2.39860808       0.00000000
Si       3.39881469       1.35079938       0.72478734       0.00000000
Si      -2.86386345       2.19361140       1.13997219       0.00000000
