10
Lattice="16.28999089631971 0.0 0.0 0.0 16.28999089631971 0.0 0.0 0.0 34.51530692428229" Properties=species:S:1:pos:R:3:initial_magmoms:R:1 pbc="T T T"
Si      -1.35761761      -1.35607734      -1.35676296       0.00000000
Si       1.35735773       1.35856971      -1.35624523       0.00000000
Si       1.35693419      -1.35725022       1.35838518       0.00000000
Si      -1.35980516       1.35910728       1.36242347       0.00000000
Si      -0.00010589      -2.71364196      -2.71366398       0.00000000
Si       2.71429844       0.00177561      -2.71383655       0.00000000
Si       2.71610663      -2.71294312      -0.00048321       0.00000000
Si       2.71426586       2.71507059       0.00162222       0.00000000
Si      -2.71539380       0.00193851      -2.71400913       0.00000000
Si      -2.71457930      -2.71544037      -0.00062128       0.00000000
