10
Lattice="16.28999089631971 0.0 0.0 0.0 16.28999089631971 0.0 0.0 0.0 34.51530692428229" Properties=species:S:1:pos:R:3:initial_magmoms:R:1 pbc="T T T"
Si       1.99892961       0.42402870      -1.07984650       0.00000000
Si      -0.71358345       1.35452979       1.73791571       0.00000000
Si      -1.75528008      -0.17958096      -1.54000482       0.00000000
Si       0.46094184      -2.07386361       0.99400688       0.00000000
Si      -2.34128025      -2.48810202      -1.24006664       0.00000000
Si      -0.36981558      -3.60759969      -0.51900696       0.00000000
Si      -0.34135695       0.08138484       3.66835790       0.00000000
Si      -0.80619210      -2.10248514       2.97059607       0.00000000
Si      -3.58725348       0.89971299      -0.49671006       0.00000000
Si      -3.00216555       1.72527390       1.57469273       0.00000000
