10
Lattice="16.28999089631971 0.0 0.0 0.0 16.28999089631971 0.0 0.0 0.0 34.51530692428229" Properties=species:S:1:pos:R:3:initial_magmoms:R:1 pbc="T T T"
Si       1.35637056       1.35694071       1.35621071       0.00000000
Si      -1.35754344       1.35734796      -1.35700457       0.00000000
Si      -1.35760860      -1.35760860       1.35731520       0.00000000
Si       1.35739683      -1.35769005      -1.35769487       0.00000000
Si       0.00267156       2.71220355       2.71528620       0.00000000
Si       2.71035504       0.00612504       2.71790936       0.00000000
Si      -2.71353933       0.00107514      -2.71511362       0.00000000
Si       2.71390298      -0.00149868      -2.71497556       0.00000000
Si      -2.71480995       2.71423980       0.00020709       0.00000000
Si       2.71492706      -2.71492398      -0.00010355       0.00000000
