10
Lattice="16.28999089631971 0.0 0.0 0.0 16.28999089631971 0.0 0.0 0.0 34.51530692428229" Properties=species:S:1:pos:R:3:initial_magmoms:R:1 pbc="T T T"
Si       1.34151408       1.36832157       1.37966388       0.00000000
Si      -1.37459907      -1.35000117       1.37528043       0.00000000
Si      -1.32747210       1.46478118      -1.35040524       0.00000000
Si       1.36875096      -1.42232877      -1.51251682       0.00000000
Si      -0.34508736      -2.54497041      -2.63743757       0.00000000
Si       2.69697333       2.70564587       0.01866589       0.00000000
Si       2.70602692      -2.71681362      -0.01354036       0.00000000
Si       2.69859072       0.01031473       2.73518428       0.00000000
Si      -2.72909628      -2.70596448      -0.00130468       0.00000000
Si      -0.01601307      -2.70453096       2.73518428       0.00000000
