10
Lattice="16.28999089631971 0.0 0.0 0.0 16.28999089631971 0.0 0.0 0.0 34.51530692428229" Properties=species:S:1:pos:R:3:initial_magmoms:R:1 pbc="T T T"
Si       1.35702216       1.35563751       1.35486462       0.00000000
Si       1.35369900      -1.35526284      -1.35907548       0.00000000
Si      -1.35913986       1.35821133      -1.35772939       0.00000000
Si      -1.35539316      -1.36813194       1.35279370       0.00000000
Si      -2.68739388      -0.03898197       2.71483750       0.00000000
Si       2.70768348      -2.70607851       0.00262316       0.00000000
Si       0.00781920       2.61478935       2.79777783       0.00000000
Si      -2.71622718      -2.71019988       0.00103546       0.00000000
Si       2.71219460       0.00288333      -2.71497556       0.00000000
Si      -0.00267156      -2.71220355      -2.71528620       0.00000000
