10
Lattice="16.28999089631971 0.0 0.0 0.0 16.28999089631971 0.0 0.0 0.0 34.51530692428229" Properties=species:S:1:pos:R:3:initial_magmoms:R:1 pbc="T T T"
Si      -0.97041159       0.04776228       2.16756249       0.00000000
Si       0.80011593       1.91919006      -1.21573334       0.00000000
Si      -1.89509715      -0.73458126      -1.29867366       0.00000000
Si       1.79822052      -1.85394861       0.03368696       0.00000000
Si      -0.56309643      -2.06373123      -2.66071747       0.00000000
Si       2.14931889       0.66003822      -2.65864655       0.00000000
Si       3.44326617      -0.62946189      -1.16009463       0.00000000
Si      -2.65650804      -2.58132969      -0.04034842       0.00000000
Si       0.69154308      -3.50503785      -1.23188651       0.00000000
Si       0.63780237      -1.45099917       3.48114677       0.00000000
