10
Lattice="16.28999089631971 0.0 0.0 0.0 16.28999089631971 0.0 0.0 0.0 34.51530692428229" Properties=species:S:1:pos:R:3:initial_magmoms:R:1 pbc="T T T"
Si      -1.35638993      -1.35589815       1.35710811       0.00000000
Si      -1.35753023       1.35723393      -1.35759133       0.00000000
Si       1.35791244      -1.35809730      -1.35717714       0.00000000
Si       1.35770882       1.35778779       1.35797099       0.00000000
Si       2.71456971      -0.00086337      -2.71321528       0.00000000
Si      -0.00102408       2.71342530      -2.71487201       0.00000000
Si      -2.71517141      -0.00190593      -2.71394010       0.00000000
Si      -0.00053382      -2.71474479      -2.71442331       0.00000000
Si      -2.71455239      -2.71523349       0.00041418       0.00000000
Si      -2.71492706       2.71492398       0.00010355       0.00000000
