10
Lattice="16.28999089631971 0.0 0.0 0.0 16.28999089631971 0.0 0.0 0.0 34.51530692428229" Properties=species:S:1:pos:R:3:initial_magmoms:R:1 pbc="T T T"
Si       1.64274876      -0.37193328      -1.53955613       0.00000000
Si      -0.16615800       2.13610770       0.90512991       0.00000000
Si      -1.91498724      -0.76043349      -1.08053680       0.00000000
Si       0.64259163      -0.83844630       2.12994078       0.00000000
Si       3.18725253       1.01455749      -0.42415884       0.00000000
Si       2.13716655       2.25943929       1.35017053       0.00000000
Si      -1.59199401      -1.54049643       2.62368252       0.00000000
Si       1.23499377      -2.75748975      -1.87331933       0.00000000
Si      -3.58323704       0.23120397       0.32654950       0.00000000
Si      -1.28593586       1.88160903       2.95924052       0.00000000
