10
Lattice="16.28999089631971 0.0 0.0 0.0 16.28999089631971 0.0 0.0 0.0 34.51530692428229" Properties=species:S:1:pos:R:3:initial_magmoms:R:1 pbc="T T T"
Si       1.85725874      -1.05265980       0.88921835       0.00000000
Si      -1.72143339      -1.49892435      -0.37280004       0.00000000
Si      -0.66884785       1.75174515       1.36328635       0.00000000
Si       1.11977786       0.25449867      -2.05411061       0.00000000
Si       1.92852749      -2.72005533      -0.82929974       0.00000000
Si      -0.30605815      -3.42210546      -0.33555800       0.00000000
Si      -3.45604146      -0.35774469       0.90661407       0.00000000
Si       3.48257720       0.60727491       0.70407814       0.00000000
Si       0.65131004       3.49151715       0.68840818       0.00000000
Si      -2.94179874       1.93904757       0.93560695       0.00000000
