10
Lattice="16.28999089631971 0.0 0.0 0.0 16.28999089631971 0.0 0.0 0.0 34.51530692428229" Properties=species:S:1:pos:R:3:initial_magmoms:R:1 pbc="T T T"
Si      -1.85725874       1.05265980      -0.88921835       0.00000000
Si       1.62531846       1.65993471      -0.18514021       0.00000000
Si       0.17845695      -0.39570039       2.30503703       0.00000000
Si       0.07126875      -1.66739553      -1.71851809       0.00000000
Si       1.56584367       1.43049006      -2.49828834       0.00000000
Si      -0.73748088       1.30715847      -2.94332896       0.00000000
Si      -2.16331689      -2.36944566      -1.22477635       0.00000000
Si       3.46509477       0.47705265       0.65989852       0.00000000
Si      -1.80170495      -1.54321686       2.78555940       0.00000000
Si       3.08615679      -1.86947298       0.69907342       0.00000000
