10
Lattice="16.28999089631971 0.0 0.0 0.0 16.28999089631971 0.0 0.0 0.0 34.51530692428229" Properties=species:S:1:pos:R:3:initial_magmoms:R:1 pbc="T T T"
Si       1.20508533       1.55191476       1.36370054       0.00000000
Si      -1.18101523       1.47851854      -1.48854247       0.00000000
Si      -1.78989796      -0.81006912       1.44753827       0.00000000
Si       1.51819542      -1.22859180      -1.47749757       0.00000000
Si      -2.60583704      -2.52091008      -0.00072482       0.00000000
Si      -0.24317712       3.60689012       0.91234362       0.00000000
Si      -2.34723424       2.96341883      -0.08877342       0.00000000
Si      -2.54528738       0.13123224      -2.85541842       0.00000000
Si       2.80121211      -2.61912249      -0.04939143       0.00000000
Si       0.17073549      -2.58419673      -2.84972339       0.00000000
