10
Lattice="10.86 0.0 0.0 0.0 10.86 0.0 0.0 0.0 10.86" Properties=species:S:1:pos:R:3:initial_magmoms:R:1 pbc="T T T"
Si       1.23777936       1.29598896       1.42153056       0.00000000
Si       1.19967162      -1.26301800      -1.54455264       0.00000000
Si      -1.47722064       1.29598896      -1.29346944       0.00000000
Si      -1.47722064      -1.41901104       1.42153056       0.00000000
Si       2.62740324       2.54518218       0.03751044       0.00000000
Si      -0.11639748      -2.69630994      -2.61736860       0.00000000
Si      -0.29815044       2.67775020      -2.66262222       0.00000000
Si       2.59527936      -0.06151104       2.77903056       0.00000000
Si       2.51990010      -2.86697484      -0.31338702       0.00000000
Si      -0.11972064       2.65348896       2.77903056       0.00000000
