10
Lattice="10.86 0.0 0.0 0.0 10.86 0.0 0.0 0.0 10.86" Properties=species:S:1:pos:R:3:initial_magmoms:R:1 pbc="T T T"
Si      -1.40503422       1.30785894      -1.25679522       0.00000000
Si       1.30996578       1.30785894       1.45820478       0.00000000
Si      -1.40503422      -1.40714106       1.45820478       0.00000000
Si       2.52724146      -2.69134692      -0.05895894       0.00000000
Si      -0.04753422       2.66535894      -2.61429522       0.00000000
Si       2.66746578       2.66535894       0.10070478       0.00000000
Si      -2.76253422       2.66535894       0.10070478       0.00000000
Si      -2.73028002       0.16469190      -2.73450456       0.00000000
Si      -0.04753422       2.66535894       2.81570478       0.00000000
Si       2.66746578      -0.04964106       2.81570478       0.00000000
