10
Lattice="16.28999089631971 0.0 0.0 0.0 16.28999089631971 0.0 0.0 0.0 34.33025523377368" Properties=species:S:1:pos:R:3:initial_magmoms:R:1 pbc="T T T"
Si      -1.53654448      -1.79899104       0.07078903       0.00000000
Si       1.23054660      -1.39673066      -1.58176739       0.00000000
Si      -1.62906679       1.22761440      -1.37750226       0.00000000
Si       0.65495574       0.39605877       2.71288128       0.00000000
Si      -2.62192600      -1.23202899       2.00296553       0.00000000
Si      -2.81531111       2.24969787       0.46060929       0.00000000
Si       2.60841996      -2.74782261      -0.17477543       0.00000000
Si      -0.33656769       2.69917155      -2.81494518       0.00000000
Si       2.55362040      -0.02006928      -2.97217784       0.00000000
Si      -1.01278188      -1.02367989       3.72981266       0.00000000
