10
Lattice="16.28999089631971 0.0 0.0 0.0 16.28999089631971 0.0 0.0 0.0 34.33025523377368" Properties=species:S:1:pos:R:3:initial_magmoms:R:1 pbc="T T T"
Si      -0.42603532      -2.01888323       1.24783681       0.00000000
Si       1.33714282      -1.34036401      -1.56123789       0.00000000
Si      -1.36868875       1.33959186      -1.56346936       0.00000000
Si       1.41262254       1.41659469       1.46799686       0.00000000
Si       1.50514485      -1.61001075       2.91628815       0.00000000
Si      -2.72002570       2.70485676      -0.22094965       0.00000000
Si       2.86473106      -2.56174585      -0.20835044       0.00000000
Si       2.70512164       2.88815184       0.03055394       0.00000000
Si       2.68673023      -0.00172674      -2.93606239       0.00000000
Si      -0.02247028       2.71063971      -2.93468918       0.00000000
