10
Lattice="16.28999089631971 0.0 0.0 0.0 16.28999089631971 0.0 0.0 0.0 34.33025523377368" Properties=species:S:1:pos:R:3:initial_magmoms:R:1 pbc="T T T"
Si       1.71470169       0.97927335      -1.14331246       0.00000000
Si       1.26737829      -1.45526715       1.28838773       0.00000000
Si      -1.45674954       1.28176236       1.27822941       0.00000000
Si      -1.23641100      -1.24221024      -1.53891432       0.00000000
Si      -0.09813096       2.62177776       2.64012512       0.00000000
Si       2.61863379      -0.09267381       2.64379846       0.00000000
Si      -2.66015700      -2.61288342      -0.08932051       0.00000000
Si       0.84668904       2.31866973      -2.81720209       0.00000000
Si       2.80052793      -2.51600679      -0.17035025       0.00000000
Si      -2.63559168       2.73351087      -0.19622498       0.00000000
