10
Lattice="16.28999089631971 0.0 0.0 0.0 16.28999089631971 0.0 0.0 0.0 34.33025523377368" Properties=species:S:1:pos:R:3:initial_magmoms:R:1 pbc="T T T"
Si       0.60238791       1.94088345      -1.14435164       0.00000000
Si      -1.16453952       1.49681805       1.42669754       0.00000000
Si       1.56281373      -1.19590461       1.43460381       0.00000000
Si      -0.89280603      -1.76488696      -1.49332029       0.00000000
Si      -2.41075710      -2.49976144       0.14028723       0.00000000
Si       1.11752658      -3.15911548      -1.22707043       0.00000000
Si      -2.50398477       0.14672403       2.80573780       0.00000000
Si       2.62497060       2.72786964      -0.07605529       0.00000000
Si       0.21111840      -2.57301757       2.80165250       0.00000000
Si      -2.49092019       2.92595604      -0.00112947       0.00000000
