10
Lattice="16.28999089631971 0.0 0.0 0.0 16.28999089631971 0.0 0.0 0.0 34.33025523377368" Properties=species:S:1:pos:R:3:initial_magmoms:R:1 pbc="T T T"
Si       1.35565380      -1.35261897      -1.35154857       0.00000000
Si      -1.36045935      -1.35458029       1.36030279       0.00000000
Si       1.35483930       1.36177884       1.35965052       0.00000000
Si      -1.36578618       1.36694277      -1.36153868       0.00000000
Si      -0.00319284      -2.69131067      -2.72432356       0.00000000
Si       2.71296918      -2.71185766       0.00226580       0.00000000
Si       2.69509905      -0.00252495      -2.73058883       0.00000000
Si      -2.71676475      -2.71084878       0.00480624       0.00000000
Si      -0.00184077      -2.71191150       2.71724122       0.00000000
Si       2.71363707       0.00270414       2.71713823       0.00000000
