10
Lattice="16.28999089631971 0.0 0.0 0.0 16.28999089631971 0.0 0.0 0.0 34.33025523377368" Properties=species:S:1:pos:R:3:initial_magmoms:R:1 pbc="T T T"
Si       1.27135305      -1.40241345      -1.46628035       0.00000000
Si      -1.32972012      -1.40179443       1.42450041       0.00000000
Si      -1.43097876       1.30985430      -1.44897789       0.00000000
Si       1.05062355       1.74201986       1.57754477       0.00000000
Si       2.34129654       0.27548980       2.86668090       0.00000000
Si       2.58080841       2.72368784       0.03360934       0.00000000
Si       2.48093442      -2.84051094      -0.05626732       0.00000000
Si      -2.55472812       0.11138173       2.77659826       0.00000000
Si      -2.71244790      -2.72128443      -0.04771908       0.00000000
Si      -2.60952768       2.83913507      -0.02080415       0.00000000
