10
Lattice="16.28999089631971 0.0 0.0 0.0 16.28999089631971 0.0 0.0 0.0 34.33025523377368" Properties=species:S:1:pos:R:3:initial_magmoms:R:1 pbc="T T T"
Si      -1.55654208       0.00601101       1.79118207       0.00000000
Si      -0.98451873      -1.57373813      -1.47946318       0.00000000
Si       2.37351816      -0.13622838       0.37172821       0.00000000
Si      -0.41778963       2.09833119      -1.14079502       0.00000000
Si       2.87906202       1.06161930      -1.64109011       0.00000000
Si      -0.39148128       0.94811058       3.56591993       0.00000000
Si      -2.99876094      -0.33696191      -2.23133052       0.00000000
Si      -2.11642938       3.18519999       0.18998374       0.00000000
Si       1.74548979       3.10575366      -1.55306728       0.00000000
Si      -3.41516592       1.39385385       1.23915126       0.00000000
