10
Lattice="16.28999089631971 0.0 0.0 0.0 16.28999089631971 0.0 0.0 0.0 34.33025523377368" Properties=species:S:1:pos:R:3:initial_magmoms:R:1 pbc="T T T"
Si      -0.83805534       2.22692445       0.20742352       0.00000000
Si       1.80918369       0.20344581      -1.63333147       0.00000000
Si      -1.99567161      -1.04396094      -1.18504674       0.00000000
Si       1.03044024       0.27655533       2.61569368       0.00000000
Si      -0.24136893       2.27711394       2.57807628       0.00000000
Si      -0.60229017       2.81271285      -2.15237088       0.00000000
Si       1.56893877       2.23976097      -2.76502896       0.00000000
Si      -2.17368873      -0.08285094      -3.27013029       0.00000000
Si       3.91644180       0.34733538      -0.39819685       0.00000000
Si       1.63668888      -1.29853454      -3.45307632       0.00000000
