10
Lattice="16.28999089631971 0.0 0.0 0.0 16.28999089631971 0.0 0.0 0.0 34.33025523377368" Properties=species:S:1:pos:R:3:initial_magmoms:R:1 pbc="T T T"
Si      -0.17801712       0.96111000      -2.08508355       0.00000000
Si       0.37385550      -2.22030161      -0.81544701       0.00000000
Si      -2.06008227       0.77708187       1.17309981       0.00000000
Si       1.99567161       1.04396094       1.18504674       0.00000000
Si      -2.17722366      -0.11937312      -2.65524074       0.00000000
Si       0.34989291      -3.33724175       1.36188199       0.00000000
Si       1.15761627       3.27088539       1.39247026       0.00000000
Si       2.63805147      -2.24849960      -1.49487747       0.00000000
Si      -0.49647033       3.23693703      -2.19655395       0.00000000
Si       1.69934022       0.54208233      -3.52599383       0.00000000
