10
Lattice="16.28999089631971 0.0 0.0 0.0 16.28999089631971 0.0 0.0 0.0 34.33025523377368" Properties=species:S:1:pos:R:3:initial_magmoms:R:1 pbc="T T T"
Si       1.85277573       1.26701339      -0.98085027       0.00000000
Si       0.49368474      -2.19823517      -0.99056574       0.00000000
Si      -2.04759503       0.11907827      -1.41952252       0.00000000
Si       0.14867883       0.81833304       2.49915956       0.00000000
Si       1.84440267       3.14034710       0.40152689       0.00000000
Si       1.50099318      -3.35176265       0.84531435       0.00000000
Si      -2.37114701       2.42124134      -1.76021616       0.00000000
Si      -1.42509400      -0.76600092      -3.65449204       0.00000000
Si       1.42915428       1.80705947      -3.29574067       0.00000000
Si       1.16131410      -0.81871652       3.83281177       0.00000000
