10
Lattice="16.28999089631971 0.0 0.0 0.0 16.28999089631971 0.0 0.0 0.0 34.33025523377368" Properties=species:S:1:pos:R:3:initial_magmoms:R:1 pbc="T T T"
Si      -2.19429558       0.80953155      -0.04607123       0.00000000
Si       0.83805534      -2.22692445      -0.20742352       0.00000000
Si       0.23576517       0.58578840      -2.35979440       0.00000000
Si       0.59668641       0.05018949       2.37065276       0.00000000
Si      -1.66488687       3.12142464      -0.21755095       0.00000000
Si      -0.13106934       2.86448247      -2.10338158       0.00000000
Si       1.86849558      -1.95036912       2.40827016       0.00000000
Si      -1.15761627      -3.27088539      -1.39247026       0.00000000
Si       2.64723903      -2.02347864      -1.84075498       0.00000000
Si       2.40699411       0.01283652      -2.97245248       0.00000000
