10
Lattice="16.28999089631971 0.0 0.0 0.0 16.28999089631971 0.0 0.0 0.0 34.33025523377368" Properties=species:S:1:pos:R:3:initial_magmoms:R:1 pbc="T T T"
Si      -1.35650088       1.34959392      -1.35906690       0.00000000
Si       1.35671265       1.35480672       1.35721307       0.00000000
Si      -1.35793440      -1.36042677       1.35645780       0.00000000
Si       1.35394335      -1.36479249      -1.35875793       0.00000000
Si       0.00465894       2.70659979      -2.71131925       0.00000000
Si       0.01172880      -2.69750997      -2.72513375       0.00000000
Si      -0.00148239       2.71274112       2.71404850       0.00000000
Si      -2.71336014       2.71394658      -0.00020598       0.00000000
Si       2.71412577      -0.00302994       2.71401417       0.00000000
Si       2.71420722       2.71422351       0.00006866       0.00000000
