10
Lattice="16.28999089631971 0.0 0.0 0.0 16.28999089631971 0.0 0.0 0.0 34.33025523377368" Properties=species:S:1:pos:R:3:initial_magmoms:R:1 pbc="T T T"
Si      -1.16444178      -1.05650424      -1.72056469       0.00000000
Si       0.73326177      -0.86687235       2.05494157       0.00000000
Si      -1.82941587       1.19985624       0.94452884       0.00000000
Si       2.32823196       0.16549011      -0.71846398       0.00000000
Si       2.92853475      -0.20869119       1.59769664       0.00000000
Si      -0.32190669      -3.25653390      -1.67318891       0.00000000
Si      -2.56692933       2.58835068      -0.77370139       0.00000000
Si      -3.31679061      -0.55868184       1.68829424       0.00000000
Si       1.10009628      -3.14556642       1.79852875       0.00000000
Si      -0.48474153      -0.04069242      -3.75713956       0.00000000
