10
Lattice="16.28999089631971 0.0 0.0 0.0 16.28999089631971 0.0 0.0 0.0 34.33025523377368" Properties=species:S:1:pos:R:3:initial_magmoms:R:1 pbc="T T T"
Si      -0.69814053       0.33896232       2.22188969       0.00000000
Si      -0.52940871      -2.31189309       0.17147972       0.00000000
Si       1.53381753      -0.25694217      -1.88583063       0.00000000
Si      -1.96670799       1.82402388       0.69196101       0.00000000
Si      -1.52914230      -2.10579201      -1.91466806       0.00000000
Si      -2.51623485       0.05124834      -2.25247797       0.00000000
Si       1.66488687      -3.12142464       0.21755095       0.00000000
Si      -0.89541243       3.27282390      -1.06087414       0.00000000
Si      -1.02886011       1.80978642      -2.99624336       0.00000000
Si       1.90065204      -2.53563624      -2.14224345       0.00000000
