10
Lattice="16.28999089631971 0.0 0.0 0.0 16.28999089631971 0.0 0.0 0.0 34.33025523377368" Properties=species:S:1:pos:R:3:initial_magmoms:R:1 pbc="T T T"
Si       1.45207431      -1.30779378      -1.29267559       0.00000000
Si       1.35884664       1.33869169       1.37277498       0.00000000
Si      -1.35843939      -1.37932317       1.36762544       0.00000000
Si      -1.29932298       1.41992504      -1.46053346       0.00000000
Si      -2.18191518      -0.24047298      -3.07222110       0.00000000
Si       2.69829189       2.68878572      -0.00626528       0.00000000
Si      -2.71994130       2.67811577      -0.00237222       0.00000000
Si       0.00319284       2.69131067       2.72432356       0.00000000
Si      -2.71705797      -2.71933857       0.00572972       0.00000000
Si      -2.71357191      -0.01953811       2.72912979       0.00000000
