10
Lattice="16.28999089631971 0.0 0.0 0.0 16.28999089631971 0.0 0.0 0.0 34.33025523377368" Properties=species:S:1:pos:R:3:initial_magmoms:R:1 pbc="T T T"
Si      -1.15730676      -1.96289613      -0.65807703       0.00000000
Si       1.87947504       0.63552177      -1.30235329       0.00000000
Si       0.82709217       0.25523172       2.21571024       0.00000000
Si       0.34314885       1.64359584      -2.70896762       0.00000000
Si      -1.35954711      -0.13721067       3.11612468       0.00000000
Si      -0.95483835       3.20380384      -1.11006942       0.00000000
Si      -2.25720756      -1.13041197      -2.55056774       0.00000000
Si      -3.12450345       0.85302585       1.89609539       0.00000000
Si       0.36258282      -3.76694847      -0.60956835       0.00000000
Si       2.27418174      -1.60510257       2.64082203       0.00000000
