10
Lattice="16.28999089631971 0.0 0.0 0.0 16.28999089631971 0.0 0.0 0.0 34.33025523377368" Properties=species:S:1:pos:R:3:initial_magmoms:R:1 pbc="T T T"
Si      -1.35613587      -1.35578412      -1.35402035       0.00000000
Si      -1.35626331       1.35801585       1.35738472       0.00000000
Si       1.35796046      -1.35653346       1.35769369       0.00000000
Si       1.35799304       1.35918873      -1.35989083       0.00000000
Si      -0.00898556      -2.70387936      -2.71391118       0.00000000
Si      -2.71174484      -0.00532683      -2.71446047       0.00000000
Si      -2.71399286      -2.71288773       0.00048062       0.00000000
Si       0.00258848      -2.71352304       2.71373953       0.00000000
Si      -2.71394399       0.00099369       2.71432315       0.00000000
Si      -2.71353674       2.71508688      -0.00027464       0.00000000
