10
Lattice="16.28999089631971 0.0 0.0 0.0 16.28999089631971 0.0 0.0 0.0 34.33025523377368" Properties=species:S:1:pos:R:3:initial_magmoms:R:1 pbc="T T T"
Si       0.49412457       1.02643290       2.00636423       0.00000000
Si      -1.96025715      -1.38141481      -0.05643897       0.00000000
Si       1.73998377      -1.73586959       0.03693938       0.00000000
Si      -0.10511937       2.28897306      -1.46037554       0.00000000
Si      -0.66226995      -2.94162281      -1.65533717       0.00000000
Si      -3.25093014       0.08511525      -1.34557511       0.00000000
Si      -1.72074528       1.06678323      -2.88951054       0.00000000
Si       0.93276540      -1.80518354      -3.00280044       0.00000000
Si       2.75193486       1.77073929       1.76625829       0.00000000
Si      -0.63944766       3.07056726       2.09438705       0.00000000
