10
Lattice="16.28999089631971 0.0 0.0 0.0 16.28999089631971 0.0 0.0 0.0 34.33025523377368" Properties=species:S:1:pos:R:3:initial_magmoms:R:1 pbc="T T T"
Si      -1.61758071      -0.73030581       1.60634787       0.00000000
Si       0.42603532       2.01888323      -1.24783681       0.00000000
Si       1.72274148      -1.72337679      -0.17762484       0.00000000
Si       1.93118017       0.40887248       1.66845134       0.00000000
Si      -2.42479908      -0.79961976      -1.43339195       0.00000000
Si       1.76317814       0.67851923      -2.80907470       0.00000000
Si      -0.95604381      -2.06315361      -2.80749551       0.00000000
Si       3.29076638      -0.54286262      -1.45618725       0.00000000
Si       0.48658655      -3.38886639      -1.36600162       0.00000000
Si       0.84579865       0.97583453       3.60062784       0.00000000
