10
Lattice="16.28999089631971 0.0 0.0 0.0 16.28999089631971 0.0 0.0 0.0 34.33025523377368" Properties=species:S:1:pos:R:3:initial_magmoms:R:1 pbc="T T T"
Si       1.35560898      -1.35045729       1.36044011       0.00000000
Si      -1.36210464      -1.32620148      -1.37882398       0.00000000
Si      -1.35889551       1.36446669       1.35566821       0.00000000
Si       1.36645855       1.35154872      -1.37828156       0.00000000
Si       2.70275928      -2.69855253       0.00054928       0.00000000
Si      -0.00224802      -2.70756090       2.71494109       0.00000000
Si      -2.58861132       0.24721704      -2.81965186       0.00000000
Si      -2.71735119      -2.70824508      -0.00645409       0.00000000
Si       2.71174484       0.00532683       2.71446047       0.00000000
Si       2.71084889       2.72013678      -0.00463459       0.00000000
