10
Lattice="16.28999089631971 0.0 0.0 0.0 16.28999089631971 0.0 0.0 0.0 34.33025523377368" Properties=species:S:1:pos:R:3:initial_magmoms:R:1 pbc="T T T"
Si       1.35633718      -1.35513252      -1.35999382       0.00000000
Si      -1.36019529       1.35938421      -1.35941021       0.00000000
Si       1.35262306       1.35741312       1.37818887       0.00000000
Si      -1.34621847      -1.37104785       1.37121982       0.00000000
Si      -2.69755542      -0.00578295       2.71373953       0.00000000
Si       2.70920050      -2.71236645      -0.00137321       0.00000000
Si       2.71170916       0.00185706      -2.71603966       0.00000000
Si      -0.00313645      -2.71318095      -2.71576502       0.00000000
Si       2.71429927       2.71580364       0.00010299       0.00000000
Si      -2.71822743      -2.71406061       0.00243745       0.00000000
