10
Lattice="16.28999089631971 0.0 0.0 0.0 16.28999089631971 0.0 0.0 0.0 34.33025523377368" Properties=species:S:1:pos:R:3:initial_magmoms:R:1 pbc="T T T"
Si      -1.34322453      -1.35092970      -1.36658523       0.00000000
Si       1.37060802       1.36427121      -1.35875793       0.00000000
Si       1.39183389      -1.35718506       1.35099929       0.00000000
Si      -1.31505912       1.44524880       1.38488327       0.00000000
Si       2.23293546       0.60180147       2.51438363       0.00000000
Si       0.55653156       2.35794492       2.63738900       0.00000000
Si      -2.69306280      -2.69563662       0.00319272       0.00000000
Si      -2.70031185       0.00645084      -2.72098322       0.00000000
Si       0.01379763      -2.70493821      -2.72149817       0.00000000
Si      -2.70361872       2.73096963      -0.00085826       0.00000000
