10
Lattice="16.28999089631971 0.0 0.0 0.0 16.28999089631971 0.0 0.0 0.0 34.33025523377368" Properties=species:S:1:pos:R:3:initial_magmoms:R:1 pbc="T T T"
Si      -1.85937318      -0.93025674      -0.90906567       0.00000000
Si       2.14795053      -0.46973844      -0.73456488       0.00000000
Si      -0.29422998      -0.16397514       2.30778404       0.00000000
Si       0.13045032       2.20182156      -0.77562389       0.00000000
Si       2.43333504       1.80972126      -0.19351976       0.00000000
Si       0.33842475       1.72774998      -3.06634578       0.00000000
Si      -2.15950014      -2.90561472       0.36177243       0.00000000
Si       2.14959582       0.15721479      -3.00688575       0.00000000
Si       0.83510685       1.60269165       3.32914403       0.00000000
Si      -2.46545892       0.40897674       2.92044211       0.00000000
