10
Lattice="16.28999089631971 0.0 0.0 0.0 16.28999089631971 0.0 0.0 0.0 34.33025523377368" Properties=species:S:1:pos:R:3:initial_magmoms:R:1 pbc="T T T"
Si       0.85069638       1.83954825      -1.21158404       0.00000000
Si      -0.87110775       0.50451759       2.19586734       0.00000000
Si      -1.87159068      -0.91269612      -1.25250573       0.00000000
Si       1.67640390      -1.75614345      -0.12300537       0.00000000
Si      -2.07379845      -1.50814449       2.12579925       0.00000000
Si       2.18316951       0.39275190      -2.63024830       0.00000000
Si      -0.55653156      -2.35794492      -2.63738900       0.00000000
Si       1.99853865      -2.33570907       2.13060549       0.00000000
Si      -0.40487166      -3.26111139       1.86609073       0.00000000
Si       3.62770515      -0.86190390      -1.22782226       0.00000000
