10
Lattice="16.28999089631971 0.0 0.0 0.0 16.28999089631971 0.0 0.0 0.0 34.33025523377368" Properties=species:S:1:pos:R:3:initial_magmoms:R:1 pbc="T T T"
Si      -2.23718715      -0.68409855      -0.26499539       0.00000000
Si       0.31996818      -0.56433447       2.28165870       0.00000000
Si       1.78341291      -0.73695960      -1.45385279       0.00000000
Si      -0.24749397       2.40912810      -0.37718673       0.00000000
Si      -3.29709600       1.19519730       0.64266274       0.00000000
Si       2.53250856      -0.10305054       2.84488118       0.00000000
Si      -2.52320697       2.67279804      -1.05064372       0.00000000
Si      -0.96625764       0.89751384       3.59863669       0.00000000
Si       1.31271336       0.19362294      -3.64851857       0.00000000
Si      -2.90885643      -0.53170560      -2.51610014       0.00000000
