10
Lattice="16.28999089631971 0.0 0.0 0.0 16.28999089631971 0.0 0.0 0.0 34.33025523377368" Properties=species:S:1:pos:R:3:initial_magmoms:R:1 pbc="T T T"
Si      -1.35729909      -1.35698958      -1.35618316       0.00000000
Si       1.35708790       1.35814617      -1.35621749       0.00000000
Si       1.35576265      -1.35985662       1.35827731       0.00000000
Si      -1.35557235       1.35956340       1.36019980       0.00000000
Si       0.01084914      -2.68653051       2.73028672       0.00000000
Si      -2.71489140       0.00066789      -2.71325891       0.00000000
Si       2.71469496       0.00039096      -2.71387685       0.00000000
Si       0.00074934      -2.71515204      -2.71360221       0.00000000
Si       0.00042354       2.71503801      -2.71373953       0.00000000
Si       2.71594603      -2.71311579       0.00078960       0.00000000
