10
Lattice="16.28999089631971 0.0 0.0 0.0 16.28999089631971 0.0 0.0 0.0 34.33025523377368" Properties=species:S:1:pos:R:3:initial_magmoms:R:1 pbc="T T T"
Si      -0.22250511      -0.89208927       2.14169417       0.00000000
Si      -2.18799461       0.89303409      -0.25970853       0.00000000
Si       1.15515648       2.05087842       0.37004603       0.00000000
Si       0.39970773      -1.85719032      -1.56944283       0.00000000
Si      -2.00403327      -2.35828701       1.52148343       0.00000000
Si      -1.80999493       1.74159648      -2.42622348       0.00000000
Si      -1.26802989      -3.27692898      -0.55251144       0.00000000
Si       1.88441091      -2.02960368       2.46968561       0.00000000
Si      -0.42818265       3.56089626       1.45021378       0.00000000
Si      -2.58142091       2.23014987       1.84532091       0.00000000
