10
Lattice="16.28999089631971 0.0 0.0 0.0 16.28999089631971 0.0 0.0 0.0 34.33025523377368" Properties=species:S:1:pos:R:3:initial_magmoms:R:1 pbc="T T T"
Si       0.15009543      -2.36810988       0.19767372       0.00000000
Si      -2.09794023       1.06323201      -0.39582806       0.00000000
Si       0.02353584       0.63662949       2.37407580       0.00000000
Si       1.56260589       0.36590598      -1.86482051       0.00000000
Si      -1.99132218      -3.07048581      -0.40550920       0.00000000
Si       1.78703648      -0.66360573       3.16377510       0.00000000
Si       0.67841890      -2.68258833       2.50099482       0.00000000
Si       3.43838636       0.05665662       1.64414550       0.00000000
Si       2.87496413      -1.61898165      -1.94058742       0.00000000
Si      -0.37377405       2.90877728       2.52124968       0.00000000
