10
Lattice="16.28999089631971 0.0 0.0 0.0 16.28999089631971 0.0 0.0 0.0 34.45770212530097" Properties=species:S:1:pos:R:3:initial_magmoms:R:1 pbc="T T T"
Si       1.78375500       0.89976186      -1.05816217       0.00000000
Si       0.58640742      -1.01148845       1.93755767       0.00000000
Si      -1.07585676      -1.74341186      -1.00502836       0.00000000
Si      -2.29063953      -0.32512885      -2.40301257       0.00000000
Si       0.43427511       2.37228012      -2.39381236       0.00000000
Si      -0.15742656       0.79068402       3.41103876       0.00000000
Si      -0.82886778      -3.07689497       1.98893414       0.00000000
Si      -3.60266822       0.95609268      -0.89500486       0.00000000
Si       3.47594391       1.67096304       0.34006325       0.00000000
Si       0.40625631      -3.04842005      -2.38154541       0.00000000
