10
Lattice="16.28999089631971 0.0 0.0 0.0 16.28999089631971 0.0 0.0 0.0 34.45770212530097" Properties=species:S:1:pos:R:3:initial_magmoms:R:1 pbc="T T T"
Si      -0.73537947       1.81366344      -1.30866980       0.00000000
Si       2.21892606      -0.49992381      -0.63908736       0.00000000
Si      -1.37065689      -1.94531108      -0.35077960       0.00000000
Si       0.59926023       1.06272702       2.13148573       0.00000000
Si       2.93329143       1.67713695      -0.26670276       0.00000000
Si       1.20019833       3.12334686      -0.86406182       0.00000000
Si      -0.09747936      -3.25931039       1.17211385       0.00000000
Si      -2.66818797       2.55476070      -0.07821903       0.00000000
Si      -0.48633795      -0.19891719       3.74831093       0.00000000
Si      -3.64410232      -1.14096789      -0.08531732       0.00000000
