10
Lattice="16.28999089631971 0.0 0.0 0.0 16.28999089631971 0.0 0.0 0.0 34.45770212530097" Properties=species:S:1:pos:R:3:initial_magmoms:R:1 pbc="T T T"
Si       2.36140817      -0.09274386      -0.17218523       0.00000000
Si      -0.70631552       1.74057184       1.52906139       0.00000000
Si      -0.59872007      -2.35190689       0.28296681       0.00000000
Si      -0.70328558       1.91208925      -1.53815822       0.00000000
Si      -1.75904048       0.15850170      -2.68046615       0.00000000
Si       2.76854414      -2.31302266      -0.91051083       0.00000000
Si      -1.93065563       3.25946773       0.08641997       0.00000000
Si      -3.19244645      -1.33158274      -1.54977048       0.00000000
Si       1.43962223      -3.51243907       0.63264376       0.00000000
Si       3.09396947       1.39893796      -1.86161286       0.00000000
