10
Lattice="16.28999089631971 0.0 0.0 0.0 16.28999089631971 0.0 0.0 0.0 34.45770212530097" Properties=species:S:1:pos:R:3:initial_magmoms:R:1 pbc="T T T"
Si      -0.39946338      -0.80827722      -2.17510718       0.00000000
Si      -0.59803848      -1.96638219       1.25425761       0.00000000
Si       2.01460059       0.78198516       1.16449525       0.00000000
Si      -1.69461612       1.83659976       0.08091534       0.00000000
Si      -2.01394899      -0.66396411       2.64285899       0.00000000
Si       0.71645049       2.07008433       2.64598775       0.00000000
Si      -2.83897233      -1.08706428      -1.65383077       0.00000000
Si      -3.45355168       0.71136801       1.26571825       0.00000000
Si      -0.49956543       3.54125052       1.17249978       0.00000000
Si       3.00913767       2.55215430       0.00166086       0.00000000
