10
Lattice="16.28999089631971 0.0 0.0 0.0 16.28999089631971 0.0 0.0 0.0 34.45770212530097" Properties=species:S:1:pos:R:3:initial_magmoms:R:1 pbc="T T T"
Si       0.99453708       1.77016914      -1.16283439       0.00000000
Si      -1.29815010       1.28809917       1.48149250       0.00000000
Si      -2.01460059      -0.78198516      -1.16449525       0.00000000
Si       1.41261993      -1.44855567       1.44676946       0.00000000
Si       2.43576225       0.25492221      -2.24632784       0.00000000
Si      -2.51416602       2.75926536       0.00800453       0.00000000
Si      -2.61263907      -2.74836735       0.08976236       0.00000000
Si      -0.70512894       3.51052758      -1.47164935       0.00000000
Si       0.06431292       2.63072097       2.84908845       0.00000000
Si      -2.65044816      -0.08241111       2.84385088       0.00000000
