10
Lattice="16.28999089631971 0.0 0.0 0.0 16.28999089631971 0.0 0.0 0.0 34.45770212530097" Properties=species:S:1:pos:R:3:initial_magmoms:R:1 pbc="T T T"
Si       1.01959110       2.08582047       0.10988567       0.00000000
Si      -0.46680624      -1.44019890       1.82191756       0.00000000
Si       1.10812725      -1.28857158      -1.67640260       0.00000000
Si      -2.11432797       0.75992850      -0.86661169       0.00000000
Si       0.78770295       2.41781067      -2.22383242       0.00000000
Si      -3.21896590       1.06469811       1.20867349       0.00000000
Si      -2.79595044      -1.11456180       2.01756850       0.00000000
Si       3.20364027       1.60974522       0.80682755       0.00000000
Si      -0.57622617      -2.77832466      -2.54470272       0.00000000
Si       1.63913238       0.42064038      -3.48133251       0.00000000
