10
Lattice="16.28999089631971 0.0 0.0 0.0 16.28999089631971 0.0 0.0 0.0 34.45770212530097" Properties=species:S:1:pos:R:3:initial_magmoms:R:1 pbc="T T T"
Si      -0.24781977      -1.72245314       1.60945125       0.00000000
Si       2.31736653      -0.33789858      -0.44705448       0.00000000
Si      -1.22025132      -0.52461619      -1.99420617       0.00000000
Si      -0.37827009       2.30519138       0.68298650       0.00000000
Si       1.44462978      -3.24732746       0.98500842       0.00000000
Si      -0.22817403      -0.57570326       3.75782126       0.00000000
Si      -0.48769002       0.96706562      -3.68363379       0.00000000
Si       3.07147950       1.33574090      -1.90675247       0.00000000
Si      -2.70741429       2.63082848       0.87863744       0.00000000
Si       2.64523536      -2.66122955      -0.97253473       0.00000000
