10
Lattice="16.28999089631971 0.0 0.0 0.0 16.28999089631971 0.0 0.0 0.0 34.45770212530097" Properties=species:S:1:pos:R:3:initial_magmoms:R:1 pbc="T T T"
Si      -1.42591257       1.23704631       1.32782829       0.00000000
Si      -1.37371941      -1.33480260      -1.35008798       0.00000000
Si       1.33854930       1.37960010      -1.34922654       0.00000000
Si       1.21855716      -1.32737436       1.60359344       0.00000000
Si       2.04253794       0.58961655       2.67274762       0.00000000
Si       0.21291030       2.28613860       2.59408064       0.00000000
Si      -2.31896295      -0.55640124       2.52382134       0.00000000
Si       2.67981903      -2.69216685       0.04648347       0.00000000
Si      -0.64725057      -2.30422050       2.97187510       0.00000000
Si       2.69526195       0.02111184      -2.70768775       0.00000000
