10
Lattice="16.28999089631971 0.0 0.0 0.0 16.28999089631971 0.0 0.0 0.0 34.45770212530097" Properties=species:S:1:pos:R:3:initial_magmoms:R:1 pbc="T T T"
Si       1.39527108      -0.87101001       1.69266665       0.00000000
Si       0.84211155       2.22042474      -0.17452836       0.00000000
Si      -0.35732115      -1.31351157      -1.95675062       0.00000000
Si      -2.32956774      -0.27554535       0.63302280       0.00000000
Si      -2.49680088       2.05040601      -0.05116972       0.00000000
Si       0.81423936      -3.09557241       1.06905081       0.00000000
Si      -0.59588820      -3.39589485      -0.82484893       0.00000000
Si       0.47185614      -0.30421575       3.82046540       0.00000000
Si      -0.85033800       3.74529906       0.44991447       0.00000000
Si       1.64950911      -1.36122498      -3.27155390       0.00000000
