10
Lattice="16.28999089631971 0.0 0.0 0.0 16.28999089631971 0.0 0.0 0.0 34.45770212530097" Properties=species:S:1:pos:R:3:initial_magmoms:R:1 pbc="T T T"
Si       1.40090742      -1.29240234       1.38355332       0.00000000
Si      -1.31201289       1.45757870       1.37053519       0.00000000
Si       1.81263717       0.70226027      -1.41259226       0.00000000
Si      -1.69116264      -1.14276403      -1.41469418       0.00000000
Si       0.42129198       0.05154156      -3.35680027       0.00000000
Si      -1.20479211       1.72453922      -2.99030795       0.00000000
Si       2.72025081       2.63282075       0.01998892       0.00000000
Si       0.04483008      -2.62463733       2.75846120       0.00000000
Si      -2.66810652       0.08884729       2.75243110       0.00000000
Si      -2.68596036       2.74763267      -0.18455556       0.00000000
