10
Lattice="16.28999089631971 0.0 0.0 0.0 16.28999089631971 0.0 0.0 0.0 34.45770212530097" Properties=species:S:1:pos:R:3:initial_magmoms:R:1 pbc="T T T"
Si      -1.35778779       1.35650088      -1.35649712       0.00000000
Si      -1.35615879      -1.35846057       1.35801326       0.00000000
Si       1.35847197       1.35648459       1.35797880       0.00000000
Si       1.36029645      -1.35866419      -1.36014964       0.00000000
Si      -2.71368594       2.71406061       0.00155060       0.00000000
Si       0.00156384       2.71383255       2.71533736       0.00000000
Si      -2.71394658      -0.00097740       2.71561302       0.00000000
Si       2.71712313       2.71316466       0.00051687       0.00000000
Si      -2.69850366       0.01101204      -2.73179781       0.00000000
Si      -2.71391400      -2.71733217      -0.00041349       0.00000000
