10
Lattice="16.28999089631971 0.0 0.0 0.0 16.28999089631971 0.0 0.0 0.0 34.45770212530097" Properties=species:S:1:pos:R:3:initial_magmoms:R:1 pbc="T T T"
Si       0.09428978       2.00110677      -1.13100579       0.00000000
Si      -0.95264802      -1.66905371      -1.32617432       0.00000000
Si      -1.43536959       0.15824187       1.84241990       0.00000000
Si       2.11211090      -0.63851573       0.99241683       0.00000000
Si       1.51444709       3.18152904       0.27321527       0.00000000
Si       0.09985933       0.64198809       3.54046196       0.00000000
Si      -1.30324140      -3.36946907       0.25901869       0.00000000
Si       0.61191919       1.59423144      -3.35015196       0.00000000
Si      -2.58091497      -2.02543004       1.87484462       0.00000000
Si       2.45016098      -2.85636665       0.38206721       0.00000000
