10
Lattice="16.28999089631971 0.0 0.0 0.0 16.28999089631971 0.0 0.0 0.0 34.45770212530097" Properties=species:S:1:pos:R:3:initial_magmoms:R:1 pbc="T T T"
Si      -1.35114147       1.35662957       1.36014964       0.00000000
Si      -1.35630540      -1.35575438      -1.35725519       0.00000000
Si       1.35902583      -1.35555282       1.35915036       0.00000000
Si       1.35829278       1.35936629      -1.35715181       0.00000000
Si      -0.00506619      -2.69162181       2.71137472       0.00000000
Si      -2.70407484      -0.03287159       2.71165038       0.00000000
Si       0.02239875       2.70402434       2.72215999       0.00000000
Si       0.00073305      -2.71270107      -2.71451038       0.00000000
Si      -2.71406061       0.00194828      -2.71468266       0.00000000
Si       2.71500543      -2.71393911      -0.00027566       0.00000000
