10
Lattice="16.28999089631971 0.0 0.0 0.0 16.28999089631971 0.0 0.0 0.0 34.45770212530097" Properties=species:S:1:pos:R:3:initial_magmoms:R:1 pbc="T T T"
Si       1.83479157       1.03860153      -0.96230079       0.00000000
Si       0.25309773       0.85682142       2.17821040       0.00000000
Si      -1.75637151       0.60131277      -1.48181985       0.00000000
Si      -0.03907971      -2.39199102       0.02928906       0.00000000
Si      -1.77215652       0.50266053       3.17062723       0.00000000
Si      -2.20128399      -2.89454729       0.81192729       0.00000000
Si       1.05362091       2.59455717      -2.51210572       0.00000000
Si       2.69684208      -0.42935553      -2.58801608       0.00000000
Si       1.78393419      -0.52950645       3.29122926       0.00000000
Si      -0.63438147       1.23877305      -3.53791209       0.00000000
