10
Lattice="16.28999089631971 0.0 0.0 0.0 16.28999089631971 0.0 0.0 0.0 34.45770212530097" Properties=species:S:1:pos:R:3:initial_magmoms:R:1 pbc="T T T"
Si      -0.29089053      -0.06064278      -2.32658535       0.00000000
Si       0.51440562       2.31113398       0.21984026       0.00000000
Si      -1.85782563      -0.61416884       1.45318548       0.00000000
Si       1.94052996      -1.44446755       0.30164289       0.00000000
Si       0.17892936       2.50071700       2.52061678       0.00000000
Si      -1.77971508      -1.87291084      -2.52509628       0.00000000
Si       2.05845327       0.19984898      -3.00388632       0.00000000
Si       3.50076987      -0.44708557      -1.18624152       0.00000000
Si      -1.72602324       1.17681241       3.24023183       0.00000000
Si       1.42713432      -3.64755973      -0.58674608       0.00000000
