10
Lattice="16.28999089631971 0.0 0.0 0.0 16.28999089631971 0.0 0.0 0.0 34.45770212530097" Properties=species:S:1:pos:R:3:initial_magmoms:R:1 pbc="T T T"
Si      -1.74270420       0.49733370      -1.50390725       0.00000000
Si       1.62608409      -1.67299766      -0.36649232       0.00000000
Si       1.02654693       2.16367038      -0.04400251       0.00000000
Si      -2.39252859      -0.90311760       1.48199214       0.00000000
Si      -0.48637053      -2.86730325       1.57561377       0.00000000
Si      -0.26182917       2.79091683       1.79149591       0.00000000
Si      -1.48116825       1.02309345       2.80575239       0.00000000
Si       3.01742928      -1.02227895       1.57771569       0.00000000
Si       1.20479211      -1.72453922       2.99030795       0.00000000
Si      -2.18414691       2.78360262      -1.19537281       0.00000000
