10
Lattice="16.28999089631971 0.0 0.0 0.0 16.28999089631971 0.0 0.0 0.0 34.45770212530097" Properties=species:S:1:pos:R:3:initial_magmoms:R:1 pbc="T T T"
Si       1.34482095       1.35272160       1.37097970       0.00000000
Si      -1.36736631      -1.36428750       1.36574212       0.00000000
Si       1.46479680      -1.16820477      -1.45620743       0.00000000
Si      -1.31854518       1.45847628      -1.34519843       0.00000000
Si      -0.16426836      -2.36750715      -2.58443282       0.00000000
Si       2.71909422       2.69211798       0.01400017       0.00000000
Si       2.70454725      -2.72165175      -0.01961678       0.00000000
Si       2.70402597      -0.00553860       2.72751127       0.00000000
Si      -0.00936675       2.70892926       2.72792477       0.00000000
Si      -2.73210993       2.71386513       0.01058197       0.00000000
