10
Lattice="16.28999089631971 0.0 0.0 0.0 16.28999089631971 0.0 0.0 0.0 34.45770212530097" Properties=species:S:1:pos:R:3:initial_magmoms:R:1 pbc="T T T"
Si       0.68281327       1.89519489       1.28217181       0.00000000
Si      -2.22885223       0.95234598      -0.28151958       0.00000000
Si       1.19904337       0.21947517      -2.21828473       0.00000000
Si      -0.21554439      -2.32006578       1.04896195       0.00000000
Si      -1.75077331      -2.80381199      -0.64908010       0.00000000
Si      -3.35232466      -1.03342131      -0.70882979       0.00000000
Si       2.13278617      -0.77278131       2.84837862       0.00000000
Si      -0.22111394      -0.96094710      -3.62250579       0.00000000
Si      -2.12715376       2.08780785      -2.31438731       0.00000000
Si      -1.18753450       2.16455004       2.87731653       0.00000000
