10
Lattice="16.28999089631971 0.0 0.0 0.0 16.28999089631971 0.0 0.0 0.0 34.45770212530097" Properties=species:S:1:pos:R:3:initial_magmoms:R:1 pbc="T T T"
Si      -1.35690813       1.35734796       1.35735856       0.00000000
Si       1.35865116       1.35668007      -1.35746193       0.00000000
Si       1.35772263      -1.35752715       1.35756531       0.00000000
Si      -1.35847197      -1.35648459      -1.35797880       0.00000000
Si       2.71432125      -0.00122175       2.71437254       0.00000000
Si       2.71207323       0.00249237      -2.71699133       0.00000000
Si       0.00039096       2.71466334       2.71444146       0.00000000
Si       2.71476108      -2.71480018       0.00017229       0.00000000
Si      -2.71463076      -2.71494516       0.00003446       0.00000000
Si      -2.71479366       2.71533123      -0.00010337       0.00000000
