10
Lattice="16.28999089631971 0.0 0.0 0.0 16.28999089631971 0.0 0.0 0.0 34.45770212530097" Properties=species:S:1:pos:R:3:initial_magmoms:R:1 pbc="T T T"
Si      -1.35729909      -1.35731538      -1.35708290       0.00000000
Si       1.35747828       1.35796698      -1.35711736       0.00000000
Si       1.35956340      -1.35933534       1.35973614       0.00000000
Si      -1.35718506       1.36098063       1.36104554       0.00000000
Si       2.71489140       2.71376739       0.00013783       0.00000000
Si       2.71466334       0.00061902      -2.71440700       0.00000000
Si      -0.00039096      -2.71466334      -2.71444146       0.00000000
Si      -2.71552671      -2.71383255       0.00261879       0.00000000
Si       0.00006516       2.71516833      -2.71423471       0.00000000
Si      -2.71518462       0.00066789      -2.71454483       0.00000000
