10
Lattice="16.28999089631971 0.0 0.0 0.0 16.28999089631971 0.0 0.0 0.0 34.45770212530097" Properties=species:S:1:pos:R:3:initial_magmoms:R:1 pbc="T T T"
Si       1.29889944      -1.99313037      -0.30526095       0.00000000
Si      -2.16085221      -0.09581778       1.09806421       0.00000000
Si      -0.47284983       1.25996634       2.12387057       0.00000000
Si       1.17037134      -1.76394636       2.04796021       0.00000000
Si       0.97402797       2.87930637       1.09744397       0.00000000
Si      -1.62279351       0.60066117      -2.78221980       0.00000000
Si      -3.18780639       0.80125623      -0.78132883       0.00000000
Si       1.19187414      -1.83964599      -2.62960655       0.00000000
Si       0.30832083      -0.29598930       3.67367551       0.00000000
Si       2.19625038       3.29255109      -0.87942997       0.00000000
