10
Lattice="16.28999089631971 0.0 0.0 0.0 16.28999089631971 0.0 0.0 0.0 34.45770212530097" Properties=species:S:1:pos:R:3:initial_magmoms:R:1 pbc="T T T"
Si      -0.67142493       0.44758404       2.19337180       0.00000000
Si      -0.86133375       1.45111320      -1.62771384       0.00000000
Si       2.22325920       0.72371583      -0.19878659       0.00000000
Si      -0.02156796      -2.22492078      -0.84076840       0.00000000
Si       0.86558544       2.98493073      -1.61403413       0.00000000
Si      -2.09407950      -2.90701566       0.05788897       0.00000000
Si       3.69608697      -1.01346606       0.34733383       0.00000000
Si       2.85117354       0.76483179      -2.58370886       0.00000000
Si      -2.87099847      -0.43116372       2.66719992       0.00000000
Si       0.33969537      -1.05109596       3.81857023       0.00000000
