10
Lattice="16.28999089631971 0.0 0.0 0.0 16.28999089631971 0.0 0.0 0.0 34.45770212530097" Properties=species:S:1:pos:R:3:initial_magmoms:R:1 pbc="T T T"
Si       0.37639674       1.34905635       1.84869121       0.00000000
Si      -1.40856372       1.44093195      -1.19816389       0.00000000
Si       0.44144271      -2.28626892      -0.30853444       0.00000000
Si       2.19957354       0.87874776      -0.47382813       0.00000000
Si       1.31233869       2.95158510       0.20374851       0.00000000
Si       3.21069384      -0.61993224       1.15137030       0.00000000
Si       1.92231774       0.00731421       2.98686872       0.00000000
Si       0.77691897      -2.47585194      -2.60931095       0.00000000
Si       2.18414691      -2.78360262       1.19537281       0.00000000
Si      -0.96262497       3.66114492      -0.47730836       0.00000000
