10
Lattice="16.28999089631971 0.0 0.0 0.0 16.28999089631971 0.0 0.0 0.0 34.45770212530097" Properties=species:S:1:pos:R:3:initial_magmoms:R:1 pbc="T T T"
Si      -1.33999911      -1.35580041      -1.39384929       0.00000000
Si       1.37733579       1.35615879      -1.39205749       0.00000000
Si       1.15585695      -1.57853358       1.43450940       0.00000000
Si      -1.46126187       1.36479249       1.55710997       0.00000000
Si      -2.67981903       2.69216685      -0.04648347       0.00000000
Si       2.49070842      -0.19531710       2.87087951       0.00000000
Si      -2.69537598      -2.71984356      -0.01440333       0.00000000
Si       2.73153978       2.70663237      -0.02115704       0.00000000
Si       2.72784195      -2.71912680      -0.00716721       0.00000000
Si      -2.70031185      -0.00296478      -2.75437796       0.00000000
