10
Lattice="16.28999089631971 0.0 0.0 0.0 16.28999089631971 0.0 0.0 0.0 34.45770212530097" Properties=species:S:1:pos:R:3:initial_magmoms:R:1 pbc="T T T"
Si      -1.35632169      -1.35702216      -1.35753085       0.00000000
Si      -1.35671265       1.35848826       1.35846121       0.00000000
Si       1.35891180       1.35801585      -1.35784097       0.00000000
Si       1.36189287      -1.35711990       1.36211373       0.00000000
Si      -2.69526195      -0.02111184       2.70768775       0.00000000
Si      -2.71285515      -0.00011403      -2.71464821       0.00000000
Si      -2.71507059       2.71396287      -0.00062024       0.00000000
Si       0.00180819      -2.71489140      -2.71495833       0.00000000
Si       2.71578735       2.71443528      -0.00072361       0.00000000
Si       0.00151497       2.71567332      -2.71495833       0.00000000
