10
Lattice="16.28999089631971 0.0 0.0 0.0 16.28999089631971 0.0 0.0 0.0 34.45770212530097" Properties=species:S:1:pos:R:3:initial_magmoms:R:1 pbc="T T T"
Si       1.35869675      -1.35316862       1.35825446       0.00000000
Si      -1.35552348      -1.35699599      -1.35797880       0.00000000
Si       1.35925405       1.35760860      -1.35822000       0.00000000
Si      -1.35553977       1.35927018       1.36180361       0.00000000
Si      -2.71394658       2.71389771      -0.00124048       0.00000000
Si      -2.71350675       0.00031928      -2.71544073       0.00000000
Si      -2.71383255      -2.71571309      -0.00117156       0.00000000
Si       0.00208512      -2.71486601      -2.71537182       0.00000000
Si       0.00198738       2.71567332      -2.71513061       0.00000000
Si       2.71687782       2.71472850      -0.00075807       0.00000000
