10
Lattice="16.28999089631971 0.0 0.0 0.0 16.28999089631971 0.0 0.0 0.0 34.45770212530097" Properties=species:S:1:pos:R:3:initial_magmoms:R:1 pbc="T T T"
Si      -1.35464178      -1.35738054      -1.35711736       0.00000000
Si       1.35756788      -1.35705474       1.35704844       0.00000000
Si      -1.35758048       1.35790182       1.35735856       0.00000000
Si       1.35888736       1.35770634      -1.35735856       0.00000000
Si      -0.00086826      -2.71477737      -2.71078894       0.00000000
Si       2.71315651       0.00112401       2.71440700       0.00000000
Si       0.00141071       2.71419093       2.71420026       0.00000000
Si       2.71460632      -2.71443528      -0.00034458       0.00000000
Si      -2.71492302      -2.71427238       0.00013783       0.00000000
Si      -0.00003258      -2.71521720       2.71451038       0.00000000
