10
Lattice="16.28999089631971 0.0 0.0 0.0 16.28999089631971 0.0 0.0 0.0 34.45770212530097" Properties=species:S:1:pos:R:3:initial_magmoms:R:1 pbc="T T T"
Si      -1.35762378      -1.35711990      -1.35746193       0.00000000
Si       1.35760046       1.35816246      -1.35746193       0.00000000
Si       1.35564565      -1.35809730       1.36080433       0.00000000
Si      -1.35641414       1.35514881       1.36414673       0.00000000
Si       2.71421536      -2.71472035      -0.00130939       0.00000000
Si       0.00004724      -2.71454442      -2.71457929       0.00000000
Si      -2.71489044       0.00094482      -2.71437254       0.00000000
Si       0.00731747      -2.71078306       2.71850747       0.00000000
Si       2.71463890       0.00078192      -2.71485495       0.00000000
Si       2.71318909       2.71634121      -0.00010337       0.00000000
