10
Lattice="16.28999089631971 0.0 0.0 0.0 16.28999089631971 0.0 0.0 0.0 34.45770212530097" Properties=species:S:1:pos:R:3:initial_magmoms:R:1 pbc="T T T"
Si       0.84722661      -1.52059005      -1.54825434       0.00000000
Si       0.64597995       2.15208819      -0.66865208       0.00000000
Si      -2.40746652      -0.42275808      -0.10988567       0.00000000
Si       1.88854433      -0.30838599       1.61058177       0.00000000
Si      -0.77726106       2.96334648       1.22114719       0.00000000
Si       0.49102947      -1.67814693       2.94441371       0.00000000
Si       2.97414090       1.43474175      -1.02084445       0.00000000
Si       0.94892508      -0.38512818      -3.58112207       0.00000000
Si      -2.06677746       1.40379075       2.85383814       0.00000000
Si       3.75889211      -0.57774114       0.01543706       0.00000000
