10
Lattice="16.28999089631971 0.0 0.0 0.0 16.28999089631971 0.0 0.0 0.0 34.45770212530097" Properties=species:S:1:pos:R:3:initial_magmoms:R:1 pbc="T T T"
Si      -1.19500182       1.43537706      -1.36233081       0.00000000
Si       1.34169327       1.37241621       1.35411953       0.00000000
Si      -1.37427327      -1.33939638       1.35697953       0.00000000
Si       1.43845587      -1.19550681      -1.48848397       0.00000000
Si       0.55268712       2.24303526      -2.80962889       0.00000000
Si       2.35729332       0.55167714      -2.83926253       0.00000000
Si       2.68786629      -2.67786423      -0.00964127       0.00000000
Si      -0.01506825      -2.69765658       2.71351110       0.00000000
Si      -2.71909422      -2.69211798      -0.01400017       0.00000000
Si       2.70235861       0.01788642       2.71289086       0.00000000
