10
Lattice="16.28999089631971 0.0 0.0 0.0 16.28999089631971 0.0 0.0 0.0 34.45770212530097" Properties=species:S:1:pos:R:3:initial_magmoms:R:1 pbc="T T T"
Si      -1.35654975      -1.35814617       1.35746193       0.00000000
Si       1.35870003       1.35672894       1.35756531       0.00000000
Si      -1.35920502       1.35826020      -1.35653158       0.00000000
Si       1.35765747      -1.35847197      -1.36104554       0.00000000
Si       0.01506825       2.69765658      -2.71351110       0.00000000
Si       2.70293454       0.01979235      -2.72315237       0.00000000
Si      -2.71339272       2.71446786       0.00041349       0.00000000
Si      -2.71373481      -0.00079821       2.71475158       0.00000000
Si       0.00083079       2.71425609       2.71471712       0.00000000
Si      -2.71295289      -2.71674846      -0.00003446       0.00000000
