10
Lattice="16.28999089631971 0.0 0.0 0.0 16.28999089631971 0.0 0.0 0.0 34.45770212530097" Properties=species:S:1:pos:R:3:initial_magmoms:R:1 pbc="T T T"
Si      -1.35741312      -1.35580041      -1.35725519       0.00000000
Si       1.35715248       1.35925389      -1.35728965       0.00000000
Si       1.36026387      -1.35451350       1.35928819       0.00000000
Si      -1.35474156       1.35917244       1.36269951       0.00000000
Si       2.70023040      -0.00992061       2.72588142       0.00000000
Si       2.71399545      -2.71303434      -0.00020675       0.00000000
Si      -0.00022806      -2.71314837      -2.71454483       0.00000000
Si      -2.71489140      -2.71376739      -0.00013783       0.00000000
Si      -2.71482624       0.00140094      -2.71437254       0.00000000
Si       2.71502172       0.00172674      -2.71444146       0.00000000
