10
Lattice="16.28999089631971 0.0 0.0 0.0 16.28999089631971 0.0 0.0 0.0 34.45770212530097" Properties=species:S:1:pos:R:3:initial_magmoms:R:1 pbc="T T T"
Si       0.86508045       0.55285002       2.14819772       0.00000000
Si      -0.48503475      -2.35170585      -0.10251172       0.00000000
Si      -1.83971115       1.36831113       0.87395119       0.00000000
Si       1.44907695       0.61190127      -1.95954170       0.00000000
Si       2.26780993       2.13337098      -0.22945397       0.00000000
Si      -2.06514846      -1.72437795      -1.84920808       0.00000000
Si      -0.52528734      -0.26279028      -3.29016107       0.00000000
Si       0.84116673       2.91721320       1.56072803       0.00000000
Si      -1.29332826       0.72850509       3.16800845       0.00000000
Si      -1.70725716      -2.76495057       1.87436221       0.00000000
