10
Lattice="16.28999089631971 0.0 0.0 0.0 16.28999089631971 0.0 0.0 0.0 34.45770212530097" Properties=species:S:1:pos:R:3:initial_magmoms:R:1 pbc="T T T"
Si      -1.91511171      -1.11749400       0.89300631       0.00000000
Si       1.88214334      -1.63064529       0.56955168       0.00000000
Si      -0.65770549       0.44180109      -2.47785474       0.00000000
Si       0.34404154       1.90760787       2.24764271       0.00000000
Si       3.56649676      -0.14089221       1.43785180       0.00000000
Si       1.14958204      -3.12232711       2.25897930       0.00000000
Si      -3.14248176       0.22988448       2.51758450       0.00000000
Si      -2.40203610       2.13364791      -2.48443617       0.00000000
Si      -1.21182613      -3.02958325       2.43116453       0.00000000
Si       2.45836951       1.14767937       3.11425440       0.00000000
