10
Lattice="16.28999089631971 0.0 0.0 0.0 16.28999089631971 0.0 0.0 0.0 34.45770212530097" Properties=species:S:1:pos:R:3:initial_magmoms:R:1 pbc="T T T"
Si      -1.18858356      -1.55616741       1.31173654       0.00000000
Si       1.50265476       1.22337900       1.37958379       0.00000000
Si      -1.97156241       0.87188967      -1.10051071       0.00000000
Si       1.34407161      -1.04642073      -1.84252328       0.00000000
Si      -1.83635541      -2.64888432      -0.66369017       0.00000000
Si       1.85324814       2.92379436      -0.20560922       0.00000000
Si      -2.54594781      -1.11400794      -2.31793646       0.00000000
Si       0.45118413      -3.04126155       2.05974475       0.00000000
Si      -1.24887285       2.29630356      -2.80117154       0.00000000
Si       0.22498119       2.56741803       2.99540972       0.00000000
