10
Lattice="16.28999089631971 0.0 0.0 0.0 16.28999089631971 0.0 0.0 0.0 34.45770212530097" Properties=species:S:1:pos:R:3:initial_magmoms:R:1 pbc="T T T"
Si       1.34447886       1.34519562       1.35401616       0.00000000
Si      -1.35751086       1.35378045      -1.35784097       0.00000000
Si       1.35705474      -1.35987291      -1.35704844       0.00000000
Si      -1.35720135      -1.36730115       1.37589681       0.00000000
Si       2.64606615      -0.07328871       2.68084518       0.00000000
Si      -2.71349046       2.71216673       0.00158506       0.00000000
Si       0.00079821       2.71249755      -2.71464821       0.00000000
Si      -2.71140534      -2.71777473       0.00499637       0.00000000
Si      -2.71438641      -0.00263898      -2.71495833       0.00000000
Si       2.71523668      -0.00250866      -2.71492387       0.00000000
