10
Lattice="16.28999089631971 0.0 0.0 0.0 16.28999089631971 0.0 0.0 0.0 34.45770212530097" Properties=species:S:1:pos:R:3:initial_magmoms:R:1 pbc="T T T"
Si      -1.34447886      -1.34519562      -1.35401616       0.00000000
Si       1.30158729      -1.41848433       1.32682902       0.00000000
Si      -1.26728055       1.29601611       1.49174367       0.00000000
Si       1.37053958       1.37112930      -1.35243111       0.00000000
Si       0.58479471       2.05070642       2.80795972       0.00000000
Si       2.25973807       0.24430113       2.71116798       0.00000000
Si      -2.69338860       2.71699022       0.03145990       0.00000000
Si      -2.70198972       0.00858483      -2.71185713       0.00000000
Si      -2.70168021      -2.71249677       0.02188065       0.00000000
Si       0.01257588      -2.70506853      -2.71106460       0.00000000
