10
Lattice="16.28999089631971 0.0 0.0 0.0 16.28999089631971 0.0 0.0 0.0 34.45770212530097" Properties=species:S:1:pos:R:3:initial_magmoms:R:1 pbc="T T T"
Si       1.43340597       1.49008444      -1.13069567       0.00000000
Si      -1.52691057      -1.36287027      -1.17025313       0.00000000
Si      -0.93380796       1.53345656       1.69263219       0.00000000
Si       1.38096846      -2.08639062       0.19089578       0.00000000
Si       2.59372638      -1.02032415       1.83273728       0.00000000
Si       3.19244645       1.33158274       1.54977048       0.00000000
Si       0.85667481      -1.31305545       3.45107863       0.00000000
Si      -3.05720946      -1.26175824       1.86206081       0.00000000
Si      -0.84258396       3.64899977      -0.89817497       0.00000000
Si      -1.29990942      -3.63529269      -0.49588107       0.00000000
