10
Lattice="16.28999089631971 0.0 0.0 0.0 16.28999089631971 0.0 0.0 0.0 34.45770212530097" Properties=species:S:1:pos:R:3:initial_magmoms:R:1 pbc="T T T"
Si      -2.08448469      -0.98106525      -0.43544223       0.00000000
Si      -0.99561222       2.12346081       0.38151589       0.00000000
Si       0.48314511      -1.30937391       1.94214055       0.00000000
Si       1.73705157       0.29273130      -1.61834134       0.00000000
Si       0.52429365      -0.77333517      -3.26018285       0.00000000
Si       2.30002650       0.07576479       2.49308506       0.00000000
Si      -3.02137146      -0.40830885       1.72333402       0.00000000
Si      -1.25087652      -0.58562550       3.37241165       0.00000000
Si      -1.61020134      -2.96204328      -1.65290244       0.00000000
Si      -0.85667481       1.31305545      -3.45107863       0.00000000
