10
Lattice="16.28999089631971 0.0 0.0 0.0 16.28999089631971 0.0 0.0 0.0 34.45770212530097" Properties=species:S:1:pos:R:3:initial_magmoms:R:1 pbc="T T T"
Si       0.35059338       1.70041536      -1.58519301       0.00000000
Si      -1.50265476      -1.22337900      -1.37958379       0.00000000
Si       2.06768060      -1.07162136       0.78267268       0.00000000
Si      -1.27767357       1.34403903       1.61582593       0.00000000
Si       1.30324140       3.36946907      -0.25901869       0.00000000
Si       3.75340238       0.51310242       0.12304852       0.00000000
Si       1.96192103       0.96334173      -3.12180064       0.00000000
Si      -0.13212819       3.52771094       1.58340121       0.00000000
Si      -2.69123832      -2.77954641      -0.06784725       0.00000000
Si      -0.15858315      -2.26979973      -3.22210707       0.00000000
