10
Lattice="16.28999089631971 0.0 0.0 0.0 16.28999089631971 0.0 0.0 0.0 34.45770212530097" Properties=species:S:1:pos:R:3:initial_magmoms:R:1 pbc="T T T"
Si       0.78475120      -2.01248289       1.03628151       0.00000000
Si      -0.14103882      -0.44955513      -2.38071843       0.00000000
Si      -2.32816095       0.71734644       0.35219237       0.00000000
Si       1.38477706       1.97697069       0.65393864       0.00000000
Si      -1.08559657      -1.74312774       2.63142623       0.00000000
Si      -2.97414090      -1.43474175       1.02084445       0.00000000
Si       1.92910741       0.91118115       2.77102762       0.00000000
Si      -0.60320567       1.67861934      -3.13475675       0.00000000
Si      -2.56817781       1.78614963      -1.79821065       0.00000000
Si      -2.12691429      -2.95533180      -0.52740988       0.00000000
