10
Lattice="16.28999089631971 0.0 0.0 0.0 16.28999089631971 0.0 0.0 0.0 34.45770212530097" Properties=species:S:1:pos:R:3:initial_magmoms:R:1 pbc="T T T"
Si       0.81872074      -0.37556595       2.13768812       0.00000000
Si      -0.90160819      -1.72514358      -1.27403979       0.00000000
Si       1.75296853       1.03423581      -1.25395094       0.00000000
Si      -1.67372161       1.86830010       0.17476956       0.00000000
Si      -1.42619506      -2.12954283       2.03348797       0.00000000
Si      -2.24634769      -0.28559628      -2.61465190       0.00000000
Si       1.02140092       1.92831246       2.70234680       0.00000000
Si       0.48978003       2.45135178      -2.62509259       0.00000000
Si      -1.66036381      -3.53517435       0.13831329       0.00000000
Si      -3.64808590       0.99360855      -1.15584981       0.00000000
