10
Lattice="16.28999089631971 0.0 0.0 0.0 16.28999089631971 0.0 0.0 0.0 34.45770212530097" Properties=species:S:1:pos:R:3:initial_magmoms:R:1 pbc="T T T"
Si       1.85958495       0.82886778       1.14551249       0.00000000
Si      -1.26318850       1.41711597      -1.37114165       0.00000000
Si       1.43668026      -1.32478425      -1.36004626       0.00000000
Si      -1.75296853      -1.03423581       1.25395094       0.00000000
Si      -2.62680227       0.04805550      -2.72750094       0.00000000
Si      -0.93424779      -1.40980176       3.39163906       0.00000000
Si       2.75263533       2.62231533      -0.05048056       0.00000000
Si      -3.42669014       0.83406429       1.42872050       0.00000000
Si       1.24445826       1.89148077       3.06087939       0.00000000
Si      -2.69681669       2.69374698      -0.04803406       0.00000000
