10
Lattice="16.28999089631971 0.0 0.0 0.0 16.28999089631971 0.0 0.0 0.0 34.45770212530097" Properties=species:S:1:pos:R:3:initial_magmoms:R:1 pbc="T T T"
Si      -0.81872074       0.37556595      -2.13768812       0.00000000
Si      -0.71124421      -1.35290079       1.81237277       0.00000000
Si       0.20268018       2.30387841       0.56465868       0.00000000
Si      -2.24491580      -1.75397688      -0.10420015       0.00000000
Si       0.40987269       2.16217170       2.89496546       0.00000000
Si      -1.55704593       0.64106037       3.24136893       0.00000000
Si       0.93424779       1.40980176      -3.39163906       0.00000000
Si       3.16902402      -1.72776627       1.37548332       0.00000000
Si      -2.49244235       2.24386605      -1.96291856       0.00000000
Si       2.17870605       3.30128253      -0.33075967       0.00000000
