10
Lattice="16.28999089631971 0.0 0.0 0.0 16.28999089631971 0.0 0.0 0.0 34.45770212530097" Properties=species:S:1:pos:R:3:initial_magmoms:R:1 pbc="T T T"
Si       1.10149722      -1.59513309      -1.36373324       0.00000000
Si       1.41012756       0.30032244       1.89389974       0.00000000
Si       0.23856705       2.08238328      -1.13190169       0.00000000
Si      -2.18367450      -0.67344489       0.82698531       0.00000000
Si       0.59588820       3.39589485       0.82484893       0.00000000
Si      -3.31428847       1.44640539       0.49905118       0.00000000
Si       3.17589840      -1.24133058       1.53929533       0.00000000
Si       0.06489936      -0.26119386       3.75888945       0.00000000
Si      -1.73367954       3.12034950       1.45787173       0.00000000
Si       2.24539731       2.03466987      -2.44670496       0.00000000
