10
Lattice="16.28999089631971 0.0 0.0 0.0 16.28999089631971 0.0 0.0 0.0 34.45770212530097" Properties=species:S:1:pos:R:3:initial_magmoms:R:1 pbc="T T T"
Si      -1.34832819      -1.35268576       1.35770314       0.00000000
Si      -1.35564565       1.35809730      -1.36080433       0.00000000
Si       1.35856971      -1.35662305      -1.36211373       0.00000000
Si       1.37658645       1.34472321       1.36690335       0.00000000
Si      -2.71382672      -2.70979982      -0.00179180       0.00000000
Si      -2.71205979       2.71324611       0.00334240       0.00000000
Si      -2.71326943       0.00097740      -2.71826627       0.00000000
Si       2.72606634      -0.12779505       2.70255355       0.00000000
Si       0.00171045      -2.71353671      -2.71830072       0.00000000
Si       2.71331127       2.71878471       0.00058578       0.00000000
