10
Lattice="16.28999089631971 0.0 0.0 0.0 16.28999089631971 0.0 0.0 0.0 34.45770212530097" Properties=species:S:1:pos:R:3:initial_magmoms:R:1 pbc="T T T"
Si       1.35656930      -1.35599589       1.35625591       0.00000000
Si       1.35635753       1.35827001      -1.35890916       0.00000000
Si      -1.35896140      -1.35682668      -1.35890916       0.00000000
Si      -1.35917965       1.36200690       1.35759976       0.00000000
Si       0.00549625      -2.70423774       2.71375231       0.00000000
Si       2.71321679       2.71518366      -0.00272216       0.00000000
Si       2.71412903      -2.71485882      -0.00182626       0.00000000
Si       2.71360775       0.00094482      -2.71571640       0.00000000
Si      -0.00079984      -2.71454931      -2.71609543       0.00000000
Si      -2.71714335      -2.71419093      -0.00103373       0.00000000
