10
Lattice="16.28999089631971 0.0 0.0 0.0 16.28999089631971 0.0 0.0 0.0 34.642051614445585" Properties=species:S:1:pos:R:3:initial_magmoms:R:1 pbc="T T T"
Si      -1.35777905      -1.35749457      -1.35866202       0.00000000
Si       1.35819993       1.35725022      -1.35852346       0.00000000
Si      -1.36163612       1.35689184       1.35568281       0.00000000
Si       1.36223985      -1.36324494       1.36198766       0.00000000
Si      -2.71419323      -0.00070047      -2.71548802       0.00000000
Si      -2.71425839       2.71572219      -0.00148961       0.00000000
Si       0.00028996       2.71480995      -2.71524552       0.00000000
Si       2.71463565      -0.00001629      -2.71555730       0.00000000
Si       0.00014498      -2.71474316      -2.71548802       0.00000000
Si       2.71637868      -2.71402640      -0.00176675       0.00000000
