10
Lattice="16.28999089631971 0.0 0.0 0.0 16.28999089631971 0.0 0.0 0.0 34.642051614445585" Properties=species:S:1:pos:R:3:initial_magmoms:R:1 pbc="T T T"
Si      -1.61261878      -1.17022473       1.25085732       0.00000000
Si      -1.04179437       0.97702533      -1.89776193       0.00000000
Si       1.21419144       1.66343706       1.23365061       0.00000000
Si       1.89732888      -1.78439031       0.16430045       0.00000000
Si       1.24315506       0.02166570      -2.71153882       0.00000000
Si      -0.20329920      -2.48963328       2.73709570       0.00000000
Si       2.53433304       0.23802948       2.73018461       0.00000000
Si       3.06110277      -1.26446238      -1.82587963       0.00000000
Si       2.93619105       2.39213763      -0.35702118       0.00000000
Si      -2.89126193       0.23201847       2.71591554       0.00000000
