10
Lattice="16.28999089631971 0.0 0.0 0.0 16.28999089631971 0.0 0.0 0.0 34.642051614445585" Properties=species:S:1:pos:R:3:initial_magmoms:R:1 pbc="T T T"
Si      -0.03798828       1.38401469       1.93784281       0.00000000
Si      -1.80714744      -0.93351474      -1.33801535       0.00000000
Si       0.96716988       1.79628201      -1.33784214       0.00000000
Si       1.72348200      -1.85373684       0.00096998       0.00000000
Si       2.20102335       0.38463948      -2.71819010       0.00000000
Si      -0.54986895      -2.29977170      -2.75355965       0.00000000
Si       2.86345620       2.33023563       0.05518482       0.00000000
Si       2.34025398       1.77720642       2.35725436       0.00000000
Si      -1.27874871       3.32871489       1.25348870       0.00000000
Si       3.57962976      -0.96229917      -1.25979355       0.00000000
