10
Lattice="16.28999089631971 0.0 0.0 0.0 16.28999089631971 0.0 0.0 0.0 34.642051614445585" Properties=species:S:1:pos:R:3:initial_magmoms:R:1 pbc="T T T"
Si      -1.21938795       1.42899138       1.43378335       0.00000000
Si       1.78005717       1.06955253      -1.19566103       0.00000000
Si      -1.90764045      -0.74617974      -1.26413923       0.00000000
Si       1.46694708      -1.31461929       1.43030875       0.00000000
Si      -2.67372657      -2.56018527      -0.01730025       0.00000000
Si       3.44030139      -0.75456909      -1.28059754       0.00000000
Si      -2.58292611       0.04802292       2.79963014       0.00000000
Si      -3.55721472       0.97805160      -1.03232298       0.00000000
Si       2.78316279      -2.64150495      -0.00575405       0.00000000
Si      -2.56758093       2.87505468       0.04898389       0.00000000
