10
Lattice="16.28999089631971 0.0 0.0 0.0 16.28999089631971 0.0 0.0 0.0 34.642051614445585" Properties=species:S:1:pos:R:3:initial_magmoms:R:1 pbc="T T T"
Si       1.35777150       1.35788553      -1.35679135       0.00000000
Si       1.35796698      -1.35796698       1.35717241       0.00000000
Si      -1.35821133       1.35788553       1.35748419       0.00000000
Si      -1.35808101      -1.35845568      -1.35734562       0.00000000
Si       0.00171045      -2.71391400       2.71403305       0.00000000
Si      -2.71508688       0.00089595       2.71379056       0.00000000
Si       0.00073305       2.71107954      -2.71780904       0.00000000
Si      -0.00057015       2.71505430       2.71434483       0.00000000
Si       2.71459818      -2.71526607      -0.00003464       0.00000000
Si       2.71551042       2.71454931       0.00027714       0.00000000
