10
Lattice="16.28999089631971 0.0 0.0 0.0 16.28999089631971 0.0 0.0 0.0 34.642051614445585" Properties=species:S:1:pos:R:3:initial_magmoms:R:1 pbc="T T T"
Si      -0.85498065      -1.93841226       1.05949310       0.00000000
Si       0.88461216       1.07051364       1.96604145       0.00000000
Si       2.09743524      -0.33814782      -1.21981660       0.00000000
Si      -2.02781178       0.22866273      -1.41388148       0.00000000
Si      -2.22812991      -0.72086508       2.68074202       0.00000000
Si       2.96979732      -0.08563653       2.08773905       0.00000000
Si      -1.68420681      -3.39020964      -0.65494299       0.00000000
Si       1.80131562      -2.47396230      -2.36262388       0.00000000
Si      -0.56705490       0.54244071       3.85334148       0.00000000
Si       1.19905803       3.40345341       1.70314278       0.00000000
