10
Lattice="16.28999089631971 0.0 0.0 0.0 16.28999089631971 0.0 0.0 0.0 34.642051614445585" Properties=species:S:1:pos:R:3:initial_magmoms:R:1 pbc="T T T"
Si      -0.97262703       0.86835474       1.94248485       0.00000000
Si      -1.46272797       0.32884623      -1.82213829       0.00000000
Si       0.44882208      -2.24020080       0.68913472       0.00000000
Si       1.87489755       1.42299666      -0.40035841       0.00000000
Si       2.51353071      -2.32925823      -0.33135141       0.00000000
Si       3.50378352      -0.22177206       0.03062359       0.00000000
Si       2.09785878       2.64593583       1.62218426       0.00000000
Si      -3.16964304      -0.06222780       2.04772746       0.00000000
Si      -0.14020803       3.12771258       2.11205778       0.00000000
Si      -3.18378276       1.77938928      -1.16120222       0.00000000
