10
Lattice="16.28999089631971 0.0 0.0 0.0 16.28999089631971 0.0 0.0 0.0 34.642051614445585" Properties=species:S:1:pos:R:3:initial_magmoms:R:1 pbc="T T T"
Si      -1.34913780      -1.36094805       1.35450498       0.00000000
Si       1.35643572      -1.35477414      -1.36153732       0.00000000
Si      -1.35928647       1.35998694      -1.36212623       0.00000000
Si       1.38598578       1.34980569       1.36936642       0.00000000
Si      -0.02088378       2.71062342       2.61599599       0.00000000
Si       2.71120986      -2.71039536       0.00225173       0.00000000
Si      -2.71151937      -2.71363707      -0.00394920       0.00000000
Si       2.71295289       2.71546155      -0.00443419       0.00000000
Si      -2.71151937       2.71726974      -0.00180139       0.00000000
Si      -0.00120546      -2.71194291      -2.71839795       0.00000000
