10
Lattice="16.28999089631971 0.0 0.0 0.0 16.28999089631971 0.0 0.0 0.0 34.642051614445585" Properties=species:S:1:pos:R:3:initial_magmoms:R:1 pbc="T T T"
Si      -2.23806681       0.48177675       0.48987353       0.00000000
Si       0.44015580      -1.54711017       1.72205735       0.00000000
Si       1.69686414       1.59141897      -0.45422683       0.00000000
Si      -0.22296123      -1.22293917      -2.02254267       0.00000000
Si       2.20063239      -2.66517432       0.66401922       0.00000000
Si      -3.07048581      -1.77758109       0.32030059       0.00000000
Si       1.40592474      -2.86770789      -1.59156067       0.00000000
Si       0.59849460       3.11427333      -1.98564887       0.00000000
Si      -2.09785878      -2.64593583      -1.62218426       0.00000000
Si      -2.91066462       2.15138772      -1.00503576       0.00000000
