10
Lattice="16.28999089631971 0.0 0.0 0.0 16.28999089631971 0.0 0.0 0.0 34.642051614445585" Properties=species:S:1:pos:R:3:initial_magmoms:R:1 pbc="T T T"
Si      -0.67259781       1.66961097      -1.49490929       0.00000000
Si       2.23806681      -0.48177675      -0.48987353       0.00000000
Si      -0.46778364       0.40089690       2.26541823       0.00000000
Si      -0.83241900      -2.25935784      -0.16957294       0.00000000
Si       0.47565171      -2.99511198       1.71419360       0.00000000
Si      -2.72896596       0.73251243      -2.08500233       0.00000000
Si      -2.62063746       1.30346064       2.05593763       0.00000000
Si       2.67822261      -2.02888692       1.23218382       0.00000000
Si       2.01510558      -1.70471592      -2.51241620       0.00000000
Si       0.14020803      -3.12771258      -2.11205778       0.00000000
