10
Lattice="16.28999089631971 0.0 0.0 0.0 16.28999089631971 0.0 0.0 0.0 34.642051614445585" Properties=species:S:1:pos:R:3:initial_magmoms:R:1 pbc="T T T"
Si      -1.16377389      -0.51992793       1.99018009       0.00000000
Si       1.02811077      -1.66995306      -1.33489756       0.00000000
Si      -1.81794771       1.28612808      -0.88565919       0.00000000
Si       1.86953814       1.89509715       1.47350049       0.00000000
Si       0.81661770       0.25054020       3.06335126       0.00000000
Si       2.51877609       1.77735303      -1.18832696       0.00000000
Si      -0.83468331       3.45126456      -1.04463165       0.00000000
Si       2.20366233      -0.50352390      -2.99304029       0.00000000
Si      -3.06110277       1.26446238       1.82587963       0.00000000
Si      -2.28270141       0.24180876      -3.00804031       0.00000000
