10
Lattice="16.28999089631971 0.0 0.0 0.0 16.28999089631971 0.0 0.0 0.0 34.642051614445585" Properties=species:S:1:pos:R:3:initial_magmoms:R:1 pbc="T T T"
Si       1.36591650       1.34003169       1.37456966       0.00000000
Si      -1.34917038      -1.37459907       1.37006619       0.00000000
Si       1.34338743      -1.25195166      -1.49271298       0.00000000
Si      -1.32014160       1.42540758      -1.49653400       0.00000000
Si      -0.63700416      -2.02241979      -2.56588416       0.00000000
Si      -2.53433304      -0.23802948      -2.73018461       0.00000000
Si       0.40185801       2.15410815      -3.08720579       0.00000000
Si       2.71748151       2.69316054      -0.01388801       0.00000000
Si      -2.70637173       2.71235507      -0.01127599       0.00000000
Si       0.00974142       2.69491986       2.73129173       0.00000000
