10
Lattice="16.28999089631971 0.0 0.0 0.0 16.28999089631971 0.0 0.0 0.0 34.642051614445585" Properties=species:S:1:pos:R:3:initial_magmoms:R:1 pbc="T T T"
Si       1.36435266      -1.36896273       1.25948177       0.00000000
Si      -1.32628293      -1.36231641      -1.35831560       0.00000000
Si       1.38293955       1.35931905      -1.35904309       0.00000000
Si      -1.60981038       1.07916363       1.42728797       0.00000000
Si       2.45242692       0.27548019       2.46346695       0.00000000
Si      -0.42448482       2.91582108       2.33892871       0.00000000
Si      -2.69172702       2.69318565      -0.00006928       0.00000000
Si      -2.68753723      -0.00312768      -2.71621550       0.00000000
Si      -2.69582070      -2.72546361       0.01285221       0.00000000
Si       0.02840976       2.71165851      -2.71843259       0.00000000
