10
Lattice="16.28999089631971 0.0 0.0 0.0 16.28999089631971 0.0 0.0 0.0 34.642051614445585" Properties=species:S:1:pos:R:3:initial_magmoms:R:1 pbc="T T T"
Si      -1.35529542       1.35767050       1.36039413       0.00000000
Si       1.36111095      -1.35837755       1.35983985       0.00000000
Si       1.35207000       1.39095097      -1.36220937       0.00000000
Si      -1.36026387      -1.36024173      -1.38533988       0.00000000
Si       2.61174312       0.01611896      -2.76825482       0.00000000
Si      -2.70863604       2.71523023       0.00045035       0.00000000
Si      -2.71182888      -2.71337058       0.00311779       0.00000000
Si      -2.71134018      -0.00036164       2.71739333       0.00000000
Si       2.71682991       2.71431799       0.00263280       0.00000000
Si       0.00276930       2.71472524       2.71704691       0.00000000
