10
Lattice="16.28999089631971 0.0 0.0 0.0 16.28999089631971 0.0 0.0 0.0 34.642051614445585" Properties=species:S:1:pos:R:3:initial_magmoms:R:1 pbc="T T T"
Si      -1.35669636      -1.35749860      -1.35772669       0.00000000
Si      -1.35809730       1.36016124       1.35492068       0.00000000
Si       1.35856971       1.35711501      -1.35786526       0.00000000
Si       1.35793440      -1.35817453       1.35831560       0.00000000
Si      -2.73592179       0.01949587       2.67904456       0.00000000
Si       0.01497051       2.70390705       2.71441411       0.00000000
Si      -2.71220355       2.71557069      -0.00114319       0.00000000
Si      -2.71342530      -0.00086826      -2.71486446       0.00000000
Si      -2.71336014      -2.71552249      -0.00090069       0.00000000
Si       0.00068418       2.71421862      -2.71521088       0.00000000
