10
Lattice="16.28999089631971 0.0 0.0 0.0 16.28999089631971 0.0 0.0 0.0 34.642051614445585" Properties=species:S:1:pos:R:3:initial_magmoms:R:1 pbc="T T T"
Si      -1.37782449      -1.34066537       1.32412388       0.00000000
Si      -1.35410625       1.35540945      -1.35606387       0.00000000
Si       1.35809730      -1.36016124      -1.35492068       0.00000000
Si       1.37306781       1.34374581       1.35949343       0.00000000
Si      -0.00894321      -2.61644555       2.61429853       0.00000000
Si      -2.63510298       0.02559159       2.73966818       0.00000000
Si       0.00215028       2.71135647      -2.71292450       0.00000000
Si       2.71673217       2.70767493       0.00360278       0.00000000
Si      -2.71389771       2.71062342       0.00245959       0.00000000
Si      -2.71280628      -0.00316026      -2.71309771       0.00000000
