10
Lattice="16.28999089631971 0.0 0.0 0.0 16.28999089631971 0.0 0.0 0.0 34.642051614445585" Properties=species:S:1:pos:R:3:initial_magmoms:R:1 pbc="T T T"
Si      -1.35625653      -1.35594702       1.35686064       0.00000000
Si       1.35663120      -1.35729909      -1.35720706       0.00000000
Si      -1.35796698       1.35796698      -1.35717241       0.00000000
Si       1.35876519       1.35848826       1.35793454       0.00000000
Si      -0.00215028      -2.71135647       2.71292450       0.00000000
Si      -0.00143352      -2.71435383      -2.71385984       0.00000000
Si       2.71451673      -2.71440270       0.00013857       0.00000000
Si       2.71459818       0.00070047      -2.71482982       0.00000000
Si      -2.71495656      -2.71451673      -0.00017321       0.00000000
Si      -0.00019548       2.71585251      -2.71396377       0.00000000
