10
Lattice="16.28999089631971 0.0 0.0 0.0 16.28999089631971 0.0 0.0 0.0 34.642051614445585" Properties=species:S:1:pos:R:3:initial_magmoms:R:1 pbc="T T T"
Si      -1.72177155       0.26554329       1.48022105       0.00000000
Si      -0.54090945       0.38046924      -2.20663064       0.00000000
Si       1.26438093       1.79747118       0.78152512       0.00000000
Si       0.67302135      -2.18141019       0.57000064       0.00000000
Si       2.04418323      -1.41879384       2.33442524       0.00000000
Si      -2.71202436      -1.84194288       1.11824605       0.00000000
Si       2.54037663       0.91298934       2.49017599       0.00000000
Si      -0.36523809       2.70572013      -2.63380201       0.00000000
Si       2.01440511      -3.03319800      -1.16674495       0.00000000
Si      -2.55827934      -0.62152866      -2.78681604       0.00000000
