10
Lattice="16.28999089631971 0.0 0.0 0.0 16.28999089631971 0.0 0.0 0.0 34.642051614445585" Properties=species:S:1:pos:R:3:initial_magmoms:R:1 pbc="T T T"
Si       0.35243415      -0.40879755      -2.28592634       0.00000000
Si      -0.65713860      -1.88693586       1.27484349       0.00000000
Si      -1.66024422       1.82412162       0.08493651       0.00000000
Si       1.97946306       0.79944804       1.28389547       0.00000000
Si      -1.97335431      -0.56005020       2.71090630       0.00000000
Si       0.76250232       2.16637452       2.73484743       0.00000000
Si       2.65730625      -0.89757900      -2.35777399       0.00000000
Si      -3.44030139       0.75456909       1.28059754       0.00000000
Si      -0.47166066       3.56542488       1.30288971       0.00000000
Si      -0.45131445       1.53601668      -3.54474991       0.00000000
