10
Lattice="16.28999089631971 0.0 0.0 0.0 16.28999089631971 0.0 0.0 0.0 34.642051614445585" Properties=species:S:1:pos:R:3:initial_magmoms:R:1 pbc="T T T"
Si      -0.97437006      -1.09953006      -1.88355868       0.00000000
Si       0.60445674       2.24002487      -0.68158275       0.00000000
Si       1.95569595      -1.17594645       0.86903099       0.00000000
Si      -2.08097420       0.02305524       1.73348923       0.00000000
Si      -1.31251788      -2.38572330       1.84178035       0.00000000
Si      -0.41813172       3.39224915       1.15811907       0.00000000
Si       0.97243155      -3.34108293       1.02800346       0.00000000
Si       0.36333216      -0.71692683      -3.79264857       0.00000000
Si      -0.50399631       2.76997115      -2.78151580       0.00000000
Si      -1.55041704      -3.37969023      -1.48739196       0.00000000
