10
Lattice="16.28999089631971 0.0 0.0 0.0 16.28999089631971 0.0 0.0 0.0 34.642051614445585" Properties=species:S:1:pos:R:3:initial_magmoms:R:1 pbc="T T T"
Si      -1.35703845       1.35319401      -1.36101768       0.00000000
Si       1.35773892       1.35666378       1.35706849       0.00000000
Si      -1.35777150      -1.35788553       1.35679135       0.00000000
Si       1.35767376      -1.35527913      -1.36039413       0.00000000
Si       2.71008585       0.00584811      -2.70518547       0.00000000
Si       2.71515204      -0.00037467       2.71410233       0.00000000
Si       2.71606428       2.71332756      -0.00003464       0.00000000
Si      -2.71484253       2.71466334       0.00003464       0.00000000
Si      -0.00078192       2.71518462       2.71437947       0.00000000
Si       0.00019548      -2.71585251       2.71396377       0.00000000
