10
Lattice="16.28999089631971 0.0 0.0 0.0 16.28999089631971 0.0 0.0 0.0 34.642051614445585" Properties=species:S:1:pos:R:3:initial_magmoms:R:1 pbc="T T T"
Si      -1.93280850       0.73881666       1.18434312       0.00000000
Si      -0.01542663       1.43490465      -1.90926310       0.00000000
Si       0.76240458      -2.18838231      -0.65168664       0.00000000
Si       2.12709933       1.09467171       0.47206750       0.00000000
Si       1.47442419       2.87648820      -0.85856909       0.00000000
Si       1.02651435      -0.09215253      -3.37015387       0.00000000
Si       2.42333298      -1.61166744      -2.17216178       0.00000000
Si       3.67696251      -0.27533358      -0.69838415       0.00000000
Si      -3.03117804       2.26167102      -0.34707891       0.00000000
Si       2.03840028      -3.07286415       1.05696423       0.00000000
