10
Lattice="16.28999089631971 0.0 0.0 0.0 16.28999089631971 0.0 0.0 0.0 34.642051614445585" Properties=species:S:1:pos:R:3:initial_magmoms:R:1 pbc="T T T"
Si      -1.17555156      -1.16642916       1.65814273       0.00000000
Si       2.12775093      -0.77809185      -0.67669821       0.00000000
Si      -1.22179887       1.63567890      -1.19899672       0.00000000
Si       0.31511376       2.28087693       1.80471333       0.00000000
Si       3.09312891       1.37212299      -0.71009317       0.00000000
Si       0.08145000       1.76537988      -3.14567325       0.00000000
Si       1.60648722      -1.72631646      -2.79765901       0.00000000
Si      -2.79622737      -2.43506178       0.41185958       0.00000000
Si      -1.11575097       3.56247639       0.34791032       0.00000000
Si      -2.20366233       0.50352390       2.99304029       0.00000000
