10
Lattice="16.28999089631971 0.0 0.0 0.0 16.28999089631971 0.0 0.0 0.0 34.642051614445585" Properties=species:S:1:pos:R:3:initial_magmoms:R:1 pbc="T T T"
Si       1.35707655       1.35704351       1.35706849       0.00000000
Si      -1.35775036      -1.35880153       1.35679135       0.00000000
Si      -1.35586072       1.35805512      -1.36119089       0.00000000
Si       1.35568702      -1.36124503      -1.36302692       0.00000000
Si       0.00247733       2.71828315      -2.69601571       0.00000000
Si      -0.00084748       2.71429210       2.71389448       0.00000000
Si       2.71343734       2.71502515       0.00010393       0.00000000
Si      -2.71534267       2.71360792      -0.00024249       0.00000000
Si       2.71461022      -0.00063229       2.71455268       0.00000000
Si      -2.71544041      -0.00064206       2.71417162       0.00000000
