10
Lattice="16.28999089631971 0.0 0.0 0.0 16.28999089631971 0.0 0.0 0.0 34.642051614445585" Properties=species:S:1:pos:R:3:initial_magmoms:R:1 pbc="T T T"
Si      -1.35596331      -1.36078515      -1.32501072       0.00000000
Si      -1.35553977       1.35599589       1.35970129       0.00000000
Si       1.35979146      -1.35840681       1.35925094       0.00000000
Si       1.36353816       1.38096846      -1.36584679       0.00000000
Si      -2.71420722      -0.06151104      -2.64964037       0.00000000
Si       2.58292611      -0.04802292      -2.79963014       0.00000000
Si      -2.71173603       2.71562445       0.00031178       0.00000000
Si      -2.71123430      -2.71643895       0.00741340       0.00000000
Si      -2.71204880      -0.00003258       2.71708155       0.00000000
Si       2.71860552       2.71112841      -0.00121247       0.00000000
