10
Lattice="16.28999089631971 0.0 0.0 0.0 16.28999089631971 0.0 0.0 0.0 34.642051614445585" Properties=species:S:1:pos:R:3:initial_magmoms:R:1 pbc="T T T"
Si       1.37595114       1.13383287       1.53464374       0.00000000
Si      -1.67598036       0.16283484       1.64539445       0.00000000
Si      -1.31724198       0.44031870      -1.90638781       0.00000000
Si       1.17255420      -1.95673851      -0.66114392       0.00000000
Si       1.57221306      -0.71208477       3.08591568       0.00000000
Si      -2.12134896      -1.88273304      -2.11275062       0.00000000
Si      -0.74803680      -0.99597060       3.46933412       0.00000000
Si       2.69433342      -1.26284967      -2.26618036       0.00000000
Si      -2.71782360       2.26688382      -1.30590215       0.00000000
Si      -0.31729662      -3.39832206      -1.71183794       0.00000000
