10
Lattice="16.28999089631971 0.0 0.0 0.0 16.28999089631971 0.0 0.0 0.0 34.642051614445585" Properties=species:S:1:pos:R:3:initial_magmoms:R:1 pbc="T T T"
Si      -2.13767154       0.69206436       0.56906530       0.00000000
Si       1.21790949       1.46207637      -1.36264586       0.00000000
Si      -0.35091918      -1.76056944      -1.51836197       0.00000000
Si       1.21985614      -0.42360516       1.98398605       0.00000000
Si       2.83156757      -0.17818002      -1.94484051       0.00000000
Si      -1.64147814       3.02384754       0.72481605       0.00000000
Si      -0.01712079      -3.57111728      -0.00038106       0.00000000
Si       1.06445524      -2.78362217       2.06477136       0.00000000
Si      -3.50883342      -0.07055199      -1.19535930       0.00000000
Si      -2.16744966      -0.92233980      -2.93210489       0.00000000
