10
Lattice="16.28999089631971 0.0 0.0 0.0 16.28999089631971 0.0 0.0 0.0 34.642051614445585" Properties=species:S:1:pos:R:3:initial_magmoms:R:1 pbc="T T T"
Si      -2.00244825      -0.27275650       1.16504749       0.00000000
Si       1.95794397      -0.50571469       1.18628308       0.00000000
Si      -0.70354881       2.28087693      -0.14951518       0.00000000
Si       0.49278879      -1.71014768      -1.62890482       0.00000000
Si      -3.09032703      -0.38790058      -0.99159464       0.00000000
Si       3.55930132      -0.26755022      -0.56920387       0.00000000
Si       0.68905071      -3.55606532      -0.07763288       0.00000000
Si       1.52643816      -2.68828073       1.95086823       0.00000000
Si       2.47772529      -1.05504533      -2.63435629       0.00000000
Si       0.35717454       3.20813631      -2.06490992       0.00000000
