10
Lattice="16.28999089631971 0.0 0.0 0.0 16.28999089631971 0.0 0.0 0.0 34.642051614445585" Properties=species:S:1:pos:R:3:initial_magmoms:R:1 pbc="T T T"
Si       1.36885263       1.44316368      -1.40095999       0.00000000
Si      -1.43643591      -1.11506679      -1.69295801       0.00000000
Si       0.23156235      -1.46114784       2.01457500       0.00000000
Si      -1.21986036       1.75257594       1.30891601       0.00000000
Si      -2.03431149      -2.76446187       1.61279626       0.00000000
Si      -3.12502473      -2.23695909      -0.48963103       0.00000000
Si      -2.89527057       2.57329872      -0.13427267       0.00000000
Si       0.78371190       0.02643867       3.87142464       0.00000000
Si       2.46426879       0.08610894      -3.10140069       0.00000000
Si       0.10070478       3.73321188       1.51638737       0.00000000
