10
Lattice="16.28999089631971 0.0 0.0 0.0 16.28999089631971 0.0 0.0 0.0 34.642051614445585" Properties=species:S:1:pos:R:3:initial_magmoms:R:1 pbc="T T T"
Si      -1.63341459       0.58634226       1.64047527       0.00000000
Si      -0.33949989       2.26497789      -0.77456206       0.00000000
Si       1.85258025      -1.05845904       1.31944720       0.00000000
Si      -1.04313015      -1.03899249      -2.07720786       0.00000000
Si      -1.45774323       2.91159315       1.21330389       0.00000000
Si      -1.31701392      -3.14551755      -1.01598266       0.00000000
Si       0.85291182      -0.98051139      -3.58247513       0.00000000
Si      -3.65078448      -0.41565564       1.06028987       0.00000000
Si       1.71660762       3.27863943      -1.42701083       0.00000000
Si       3.09446469       0.61149402       2.43821288       0.00000000
