10
Lattice="16.28999089631971 0.0 0.0 0.0 16.28999089631971 0.0 0.0 0.0 34.642051614445585" Properties=species:S:1:pos:R:3:initial_magmoms:R:1 pbc="T T T"
Si      -1.20511791      -2.05747587      -0.11023107       0.00000000
Si       2.29858416      -0.89409294       0.36346461       0.00000000
Si      -0.69568074       1.03105926      -2.22305098       0.00000000
Si      -0.71571744       1.23126336       2.14489847       0.00000000
Si      -0.74987757      -2.77224849      -2.32441368       0.00000000
Si       1.13223645       2.52221328      -2.51030303       0.00000000
Si      -3.50999001      -1.56869442      -0.03838341       0.00000000
Si      -2.70583416       2.14052229      -1.70068319       0.00000000
Si      -1.40618538      -0.85447566      -3.55517718       0.00000000
Si      -1.88296110      -0.36044883       3.53143839       0.00000000
