10
Lattice="16.28999089631971 0.0 0.0 0.0 16.28999089631971 0.0 0.0 0.0 34.642051614445585" Properties=species:S:1:pos:R:3:initial_magmoms:R:1 pbc="T T T"
Si      -2.30487210       0.48878145       0.07184766       0.00000000
Si       0.45524034      -0.71477262      -2.21418261       0.00000000
Si       1.20511791       2.05747587       0.11023107       0.00000000
Si       0.68929506      -2.45280159       0.37933068       0.00000000
Si      -2.88271098      -1.64284650      -0.87734509       0.00000000
Si      -0.20106747       1.20300021      -3.44494611       0.00000000
Si      -2.65730625       0.89757900       2.35777399       0.00000000
Si       3.50370207       1.16338293       0.47369568       0.00000000
Si       0.50943717       3.08853513      -2.11281991       0.00000000
Si       2.64134205      -1.67311332      -2.26857066       0.00000000
