10
Lattice="16.28999089631971 0.0 0.0 0.0 16.28999089631971 0.0 0.0 0.0 34.642051614445585" Properties=species:S:1:pos:R:3:initial_magmoms:R:1 pbc="T T T"
Si       1.34050410      -1.29152007       1.38515628       0.00000000
Si      -1.39663944       1.44534654       1.34212736       0.00000000
Si       1.66558734       1.03105926      -1.42456999       0.00000000
Si      -0.70144740      -1.87032006      -1.47559776       0.00000000
Si      -2.62635525      -2.58576057      -0.04186494       0.00000000
Si       2.65126266      -2.62094697      -0.11447472       0.00000000
Si      -0.02852379      -2.63432106       2.73987257       0.00000000
Si       2.68539021       0.08047260       2.73464162       0.00000000
Si       2.59046838       2.83867911      -0.15271264       0.00000000
Si       3.48545727      -0.79855209      -1.44563237       0.00000000
