10
Lattice="16.28999089631971 0.0 0.0 0.0 16.28999089631971 0.0 0.0 0.0 34.642051614445585" Properties=species:S:1:pos:R:3:initial_magmoms:R:1 pbc="T T T"
Si      -0.83419461      -1.82239488       1.33115764       0.00000000
Si       1.83161569       0.84835062       1.32984125       0.00000000
Si      -1.81986993       1.82961135       0.02106238       0.00000000
Si       0.43215741      -0.47798118      -2.52509520       0.00000000
Si      -2.14495317      -0.49296798       2.83078865       0.00000000
Si       0.55297254       2.25059382       2.79489946       0.00000000
Si       0.76758058       1.80460620      -3.27436855       0.00000000
Si      -3.48545727       0.79855209       1.44563237       0.00000000
Si      -2.49344514      -2.96147313      -0.00176675       0.00000000
Si       2.55028814      -1.51153281      -2.55173495       0.00000000
