10
Lattice="16.28999089631971 0.0 0.0 0.0 16.28999089631971 0.0 0.0 0.0 34.642051614445585" Properties=species:S:1:pos:R:3:initial_magmoms:R:1 pbc="T T T"
Si      -1.57043745      -1.23735582      -1.18292280       0.00000000
Si       0.13672197       0.47961018       2.27685011       0.00000000
Si       1.27747809       1.49257045      -1.26772659       0.00000000
Si       0.38247291      -1.85174946       1.53883543       0.00000000
Si       2.55443490       0.05843223      -2.65874431       0.00000000
Si      -0.17646957      -2.65919589      -2.64170041       0.00000000
Si       2.48743413      -2.88758169       0.07856822       0.00000000
Si      -0.16316064       2.76656069      -2.65725470       0.00000000
Si      -3.01920489      -2.40316596       0.46479267       0.00000000
Si      -2.87813349       0.06300972      -2.66685055       0.00000000
