10
Lattice="16.28999089631971 0.0 0.0 0.0 16.28999089631971 0.0 0.0 0.0 34.642051614445585" Properties=species:S:1:pos:R:3:initial_magmoms:R:1 pbc="T T T"
Si      -1.52177922      -0.69388884       1.60503643       0.00000000
Si      -1.12809879       0.96690924      -1.83187271       0.00000000
Si       1.47685140       1.40009292       1.28889289       0.00000000
Si       1.02534147      -1.71199755      -1.43549814       0.00000000
Si       0.86182245       2.15441766      -2.27137667       0.00000000
Si       2.38554900       2.55682953      -0.51630543       0.00000000
Si       2.15996182      -3.03634197       0.08009247       0.00000000
Si      -3.01163004      -2.13547239       0.55434242       0.00000000
Si      -2.69433342       1.26284967       2.26618036       0.00000000
Si      -0.76808979      -2.67990048      -2.64949487       0.00000000
