10
Lattice="16.28999089631971 0.0 0.0 0.0 16.28999089631971 0.0 0.0 0.0 34.642051614445585" Properties=species:S:1:pos:R:3:initial_magmoms:R:1 pbc="T T T"
Si       0.92488104       1.80761985       1.27185735       0.00000000
Si      -1.66558734      -1.03105926       1.42456999       0.00000000
Si       1.81986993      -1.82961135      -0.02106238       0.00000000
Si      -1.18017792       0.10103058      -2.32119197       0.00000000
Si      -0.32508324      -2.32257933       2.80972627       0.00000000
Si       2.37284247       0.42098247       2.77383708       0.00000000
Si      -2.36703474      -2.90137932      -0.05102777       0.00000000
Si      -2.38762530      -1.99764270      -2.29299332       0.00000000
Si       0.48964482       0.94477113      -3.82600889       0.00000000
Si       3.65148562      -0.98126073       1.30877887       0.00000000
