10
Lattice="16.28999089631971 0.0 0.0 0.0 16.28999089631971 0.0 0.0 0.0 34.642051614445585" Properties=species:S:1:pos:R:3:initial_magmoms:R:1 pbc="T T T"
Si       0.43150581       2.18256603      -0.76458515       0.00000000
Si      -0.83738745      -0.86778459      -2.02850111       0.00000000
Si       2.09780569      -0.96977628       0.53057796       0.00000000
Si      -1.66982274      -0.84374055       1.50481692       0.00000000
Si      -1.52643816       2.68828073      -1.95086823       0.00000000
Si      -3.67862409       0.26103096       0.16101635       0.00000000
Si      -3.15763731      -1.15167042      -1.64508267       0.00000000
Si       3.49476605      -0.77274873      -1.34300381       0.00000000
Si       0.37729269      -2.83525821      -2.56559178       0.00000000
Si      -1.03364937       0.97813305      -3.57977305       0.00000000
