10
Lattice="16.28999089631971 0.0 0.0 0.0 16.28999089631971 0.0 0.0 0.0 34.642051614445585" Properties=species:S:1:pos:R:3:initial_magmoms:R:1 pbc="T T T"
Si       0.02150280       2.22309630      -0.74269136       0.00000000
Si      -2.00792888      -1.35220032       0.02584298       0.00000000
Si       1.12353759       0.11461644       2.15819587       0.00000000
Si       1.94701338      -1.70258193      -0.33446920       0.00000000
Si      -0.30257046      -1.10736162      -2.99608879       0.00000000
Si      -0.61638102      -0.87692328       3.34050862       0.00000000
Si      -1.31131731      -2.78961363      -1.70307349       0.00000000
Si      -1.50965946      -2.60724708       2.04102668       0.00000000
Si       2.77311186      -1.60961490       1.92637961       0.00000000
Si       1.23113304       2.45272014      -2.72851344       0.00000000
