10
Lattice="16.28999089631971 0.0 0.0 0.0 16.28999089631971 0.0 0.0 0.0 34.642051614445585" Properties=species:S:1:pos:R:3:initial_magmoms:R:1 pbc="T T T"
Si       1.35591444       1.35767376       1.35651422       0.00000000
Si      -1.35735936      -1.35674523       1.35741491       0.00000000
Si       1.35697329      -1.35721764      -1.35738027       0.00000000
Si      -1.35787901       1.35799956      -1.35741491       0.00000000
Si       2.71399545      -2.71425609       0.00024249       0.00000000
Si       2.71513575       0.00040725      -2.71399841       0.00000000
Si       2.71451673       2.71507059      -0.00017321       0.00000000
Si      -2.71563143      -2.71445157       0.00027714       0.00000000
Si      -2.71594646       0.00021177      -2.71434483       0.00000000
Si      -0.00120546      -2.71619460      -2.71413698       0.00000000
