10
Lattice="16.28999089631971 0.0 0.0 0.0 16.28999089631971 0.0 0.0 0.0 34.642051614445585" Properties=species:S:1:pos:R:3:initial_magmoms:R:1 pbc="T T T"
Si      -1.35117506      -1.35184194      -1.36922786       0.00000000
Si       1.36953777       1.36314720      -1.37116781       0.00000000
Si       1.32561993      -1.47128022       1.33569433       0.00000000
Si      -1.41353447       1.26987066       1.45423950       0.00000000
Si      -2.69775662      -2.71987614       0.02224021       0.00000000
Si       2.69582070       2.72546361      -0.01285221       0.00000000
Si      -2.70366989       2.72227077      -0.00207852       0.00000000
Si      -2.70679757       0.00552231      -2.73093838       0.00000000
Si       0.00849686      -2.70855459      -2.73059196       0.00000000
Si       2.73191934      -2.71507059      -0.01486145       0.00000000
