10
Lattice="16.28999089631971 0.0 0.0 0.0 16.28999089631971 0.0 0.0 0.0 34.642051614445585" Properties=species:S:1:pos:R:3:initial_magmoms:R:1 pbc="T T T"
Si       1.35413883      -1.35078146      -1.36375441       0.00000000
Si      -1.36223985       1.36324494      -1.36198766       0.00000000
Si      -1.36599795      -1.36925432       1.35460890       0.00000000
Si       1.37888334       1.37160171       1.35201075       0.00000000
Si      -2.43020247       0.23820867       2.70069585       0.00000000
Si       2.70866862      -2.70312092      -0.00436490       0.00000000
Si      -2.72152824      -2.70670472      -0.00512703       0.00000000
Si      -0.00456120      -2.70917402      -2.71999149       0.00000000
Si       2.70989037       2.71943631      -0.00516167       0.00000000
Si       2.71098180       0.00565263      -2.72071897       0.00000000
