10
Lattice="16.28999089631971 0.0 0.0 0.0 16.28999089631971 0.0 0.0 0.0 34.31420841018396" Properties=species:S:1:pos:R:3:initial_magmoms:R:1 pbc="T T T"
Si      -1.31601129       1.21269276      -1.47532649       0.00000000
Si      -1.37419917      -1.33471463       1.35853458       0.00000000
Si       1.33982464       1.37538099       1.36062775       0.00000000
Si       1.35485054      -1.33049715      -1.53491315       0.00000000
Si      -2.20844265      -0.74603313      -2.68846143       0.00000000
Si       0.40662430       2.19833550      -2.78873241       0.00000000
Si       2.19177047       0.50081976      -2.93926893       0.00000000
Si      -0.35745882      -2.45095593      -2.87640527       0.00000000
Si       2.69272055      -2.70940886      -0.03130830       0.00000000
Si       2.69537582       0.02065572       2.71881919       0.00000000
