10
Lattice="16.28999089631971 0.0 0.0 0.0 16.28999089631971 0.0 0.0 0.0 34.31420841018396" Properties=species:S:1:pos:R:3:initial_magmoms:R:1 pbc="T T T"
Si      -0.64628946       1.35358497       1.78832028       0.00000000
Si      -2.09904795      -0.99764847      -0.24256727       0.00000000
Si       0.27732096       1.51457904      -1.83268858       0.00000000
Si       1.53992628      -1.72509552       0.66346559       0.00000000
Si      -1.79369190      -1.93117040      -2.37746126       0.00000000
Si      -2.05754103      -2.40670808       1.68976982       0.00000000
Si       1.00885599       3.41676234      -0.65547038       0.00000000
Si      -3.67979697       0.75655647      -0.31967134       0.00000000
Si       0.96567120      -3.67270172      -0.53289995       0.00000000
Si      -0.28137717       0.27359055       3.84525234       0.00000000
