10
Lattice="16.28999089631971 0.0 0.0 0.0 16.28999089631971 0.0 0.0 0.0 34.31420841018396" Properties=species:S:1:pos:R:3:initial_magmoms:R:1 pbc="T T T"
Si       0.04412961      -2.04395517       1.16798768       0.00000000
Si      -2.10582459       0.14279814      -1.10515833       0.00000000
Si       0.08097759       1.36717083       2.03545135       0.00000000
Si       2.31920730      -0.18337653      -1.63363175       0.00000000
Si       2.43297666       1.40947596       1.91329270       0.00000000
Si       2.75349870       2.25438939      -0.26034204       0.00000000
Si      -0.73331064       3.42212175       1.18716933       0.00000000
Si      -3.63262113      -0.20079054       0.72238312       0.00000000
Si      -2.02043241      -1.67285268      -2.68292651       0.00000000
Si       2.24912772      -2.65875606       1.64931335       0.00000000
