10
Lattice="16.28999089631971 0.0 0.0 0.0 16.28999089631971 0.0 0.0 0.0 34.31420841018396" Properties=species:S:1:pos:R:3:initial_magmoms:R:1 pbc="T T T"
Si       1.35568638      -1.35754344      -1.36124541       0.00000000
Si      -1.35899325       1.35905841      -1.36237778       0.00000000
Si       1.38829896       1.33591032       1.35839733       0.00000000
Si      -1.36842516      -1.35648459       1.36937788       0.00000000
Si      -0.11083716       2.58255144       2.59446443       0.00000000
Si       2.71143792      -2.71305063      -0.00058334       0.00000000
Si      -2.71088406      -2.71813311      -0.00459811       0.00000000
Si       2.71365336       2.71663443      -0.00140688       0.00000000
Si      -2.71450044       2.71588509      -0.00497556       0.00000000
Si       2.71360449       0.00043983      -2.71895645       0.00000000
