10
Lattice="16.28999089631971 0.0 0.0 0.0 16.28999089631971 0.0 0.0 0.0 34.31420841018396" Properties=species:S:1:pos:R:3:initial_magmoms:R:1 pbc="T T T"
Si      -1.39242033       1.45505538       1.21146380       0.00000000
Si       1.17125100       1.77497469      -1.08254525       0.00000000
Si      -1.78189794      -1.00787859      -1.22899838       0.00000000
Si       1.83712104      -1.64760318       0.35374537       0.00000000
Si      -0.31672647      -2.28776760      -2.58688099       0.00000000
Si       2.42035191       0.44756775      -2.58983201       0.00000000
Si       0.27596889       3.05957151       1.97522988       0.00000000
Si       1.13145453      -3.60025290      -0.97785254       0.00000000
Si       2.06742906      -2.02326687       2.73378020       0.00000000
Si       2.29421844       3.20399865       0.64682319       0.00000000
