10
Lattice="16.28999089631971 0.0 0.0 0.0 16.28999089631971 0.0 0.0 0.0 34.31420841018396" Properties=species:S:1:pos:R:3:initial_magmoms:R:1 pbc="T T T"
Si      -1.51739721       1.81758933      -0.21878752       0.00000000
Si       0.59113152      -0.85260231       2.14916870       0.00000000
Si       2.01824955       0.14442714      -1.32840669       0.00000000
Si      -1.66838922      -1.60451613      -0.76376608       0.00000000
Si       0.89528211      -1.28459682      -3.05777513       0.00000000
Si      -0.27596889      -3.05957151      -1.97522988       0.00000000
Si      -1.15046496       3.06056520       1.62996012       0.00000000
Si      -3.19832973      -0.14799465      -1.87949319       0.00000000
Si       1.48268322       0.93703338       3.38074064       0.00000000
Si      -1.22559444       3.18130668      -2.16752681       0.00000000
