10
Lattice="16.28999089631971 0.0 0.0 0.0 16.28999089631971 0.0 0.0 0.0 34.31420841018396" Properties=species:S:1:pos:R:3:initial_magmoms:R:1 pbc="T T T"
Si       2.26017234      -0.25795215      -0.49374742       0.00000000
Si      -0.05629824      -1.10933271       2.12000161       0.00000000
Si      -1.58910579      -1.01300994      -1.50028666       0.00000000
Si       0.15094314       2.38614291       0.30748979       0.00000000
Si       2.98686924       0.96345576       1.37442207       0.00000000
Si       1.47211101       0.33013314       3.21441958       0.00000000
Si       2.33170173       0.61436106      -2.70989750       0.00000000
Si      -1.46815254      -3.29105241      -0.69510331       0.00000000
Si       2.69280216      -2.52455904      -0.19857644       0.00000000
Si      -0.58867173       3.25894482      -1.68338738       0.00000000
