10
Lattice="16.28999089631971 0.0 0.0 0.0 16.28999089631971 0.0 0.0 0.0 34.31420841018396" Properties=species:S:1:pos:R:3:initial_magmoms:R:1 pbc="T T T"
Si       0.67478067       2.24233479      -0.35391694       0.00000000
Si      -0.78571557      -1.36637262      -1.76882980       0.00000000
Si      -0.87089598      -0.33238116       2.19267914       0.00000000
Si       2.24779194      -0.76934412       0.33916183       0.00000000
Si       2.89066050       1.45880208       0.01303941       0.00000000
Si      -2.13212968      -2.28213289       1.86388021       0.00000000
Si       0.79503345      -3.12057756      -1.69172573       0.00000000
Si      -0.57590037       3.40296471       1.36927494       0.00000000
Si       0.98578935      -0.61142886       3.57804745       0.00000000
Si      -3.68884511       1.00862793       0.04910366       0.00000000
