10
Lattice="16.28999089631971 0.0 0.0 0.0 16.28999089631971 0.0 0.0 0.0 34.31420841018396" Properties=species:S:1:pos:R:3:initial_magmoms:R:1 pbc="T T T"
Si      -1.35798327      -1.35677781      -1.35675024       0.00000000
Si       1.35702216       1.35844065      -1.35705907       0.00000000
Si       1.35705474      -1.35576783       1.36086795       0.00000000
Si      -1.35927018       1.35721764       1.36114247       0.00000000
Si      -0.00029322      -2.71451673      -2.71428972       0.00000000
Si      -2.71559187      -2.71334385      -0.00010294       0.00000000
Si       2.71438641       0.00091224      -2.71463286       0.00000000
Si      -0.00004887       2.71529118      -2.71439266       0.00000000
Si      -2.71552671       0.00060273      -2.71442697       0.00000000
Si       2.71402803       2.71626532       0.00099511       0.00000000
