10
Lattice="16.28999089631971 0.0 0.0 0.0 16.28999089631971 0.0 0.0 0.0 34.31420841018396" Properties=species:S:1:pos:R:3:initial_magmoms:R:1 pbc="T T T"
Si       1.27307979      -1.49296221       1.24474861       0.00000000
Si      -1.33058349      -1.35962856      -1.35469139       0.00000000
Si       1.38124539       1.35410625      -1.35084820       0.00000000
Si      -1.33411842       1.40895616       1.40389799       0.00000000
Si       2.11131432       0.35813565       2.42378547       0.00000000
Si       0.52962048       2.26575396       2.54367938       0.00000000
Si      -2.69222061      -0.00477297      -2.71250538       0.00000000
Si      -2.69791233       2.71570168       0.00724030       0.00000000
Si       0.02353905       2.71051658      -2.71113281       0.00000000
Si      -2.69414120      -2.73282669       0.03153478       0.00000000
