10
Lattice="16.28999089631971 0.0 0.0 0.0 16.28999089631971 0.0 0.0 0.0 34.31420841018396" Properties=species:S:1:pos:R:3:initial_magmoms:R:1 pbc="T T T"
Si       0.36693225       1.24297587       1.84874764       0.00000000
Si       1.51739721      -1.81758933       0.21878752       0.00000000
Si       0.29180277       1.36371735      -1.94873930       0.00000000
Si      -2.55335976      -0.16094520      -0.31994586       0.00000000
Si      -1.68093252      -1.96558398      -1.66070567       0.00000000
Si      -0.54643176      -0.48738051      -3.12777616       0.00000000
Si      -0.15099201      -3.42210546      -0.54497856       0.00000000
Si      -1.76876820       2.18105181       2.05696637       0.00000000
Si      -3.33335754       0.38245662       1.81710992       0.00000000
Si      -1.28989107       3.27133566      -1.82884539       0.00000000
