10
Lattice="16.28999089631971 0.0 0.0 0.0 16.28999089631971 0.0 0.0 0.0 34.31420841018396" Properties=species:S:1:pos:R:3:initial_magmoms:R:1 pbc="T T T"
Si      -0.62366265       0.80345538      -2.05278004       0.00000000
Si       0.57425508       1.94760619       1.19636554       0.00000000
Si       2.00948553      -1.32007644      -0.30199952       0.00000000
Si      -2.09347677      -0.62731161       1.11037409       0.00000000
Si       0.40900932       0.79632036       3.29286191       0.00000000
Si      -1.14272721      -2.57668704       1.93000373       0.00000000
Si       0.65663361      -1.56281373       3.01635786       0.00000000
Si       1.11793383      -3.10971213      -1.53357146       0.00000000
Si      -2.75936310       1.74153132      -1.84456130       0.00000000
Si       2.59677261      -2.06435025       1.81947760       0.00000000
