10
Lattice="16.28999089631971 0.0 0.0 0.0 16.28999089631971 0.0 0.0 0.0 34.31420841018396" Properties=species:S:1:pos:R:3:initial_magmoms:R:1 pbc="T T T"
Si       2.13570045      -0.93807594      -0.20821873       0.00000000
Si      -0.30535605       0.93352193       2.13489398       0.00000000
Si      -0.28007397       1.58643327      -1.73509892       0.00000000
Si      -1.56458934      -1.79859519      -0.23985645       0.00000000
Si      -0.78459156      -2.34199701      -2.37691223       0.00000000
Si       1.76876820      -2.18105181      -2.05696637       0.00000000
Si       1.79369190       1.93117040       2.37746126       0.00000000
Si      -1.01862999      -3.18971232       1.57121417       0.00000000
Si       2.75936310      -1.74153132       1.84456130       0.00000000
Si       0.66588633      -2.36884293       2.95493539       0.00000000
