10
Lattice="16.28999089631971 0.0 0.0 0.0 16.28999089631971 0.0 0.0 0.0 34.31420841018396" Properties=species:S:1:pos:R:3:initial_magmoms:R:1 pbc="T T T"
Si      -1.35622395      -1.35702216      -1.37960352       0.00000000
Si       1.35715248       1.35855342      -1.38114766       0.00000000
Si       1.31696505      -1.43255889       1.36110815       0.00000000
Si      -1.27824372       1.36260963       1.59169976       0.00000000
Si      -0.23555340      -2.60325603       2.74925591       0.00000000
Si      -2.68587891       2.71173114      -0.00367162       0.00000000
Si      -2.70804960      -2.71797021       0.00181865       0.00000000
Si       2.73064383       2.71347417      -0.00830404       0.00000000
Si      -2.71213839      -0.00133578      -2.74150090       0.00000000
Si       2.71743264      -2.73768111      -0.01393158       0.00000000
