10
Lattice="16.28999089631971 0.0 0.0 0.0 16.28999089631971 0.0 0.0 0.0 34.31420841018396" Properties=species:S:1:pos:R:3:initial_magmoms:R:1 pbc="T T T"
Si       1.50539148       0.08169435       1.77531519       0.00000000
Si      -1.26324063      -1.95512580      -0.30869079       0.00000000
Si      -1.07939169       2.11310622      -0.04471144       0.00000000
Si       3.11316561       1.62553023       1.02225515       0.00000000
Si      -0.45866124      -2.68804548      -2.45394767       0.00000000
Si      -0.75886965       2.95801965      -2.21834619       0.00000000
Si       1.77841188      -3.25154916       0.77406035       0.00000000
Si      -3.46823874      -1.34032491      -0.79001646       0.00000000
Si      -0.51232050      -3.55576491       1.27110193       0.00000000
Si      -1.19316105       0.52025373      -3.59163589       0.00000000
