10
Lattice="16.28999089631971 0.0 0.0 0.0 16.28999089631971 0.0 0.0 0.0 34.31420841018396" Properties=species:S:1:pos:R:3:initial_magmoms:R:1 pbc="T T T"
Si       2.31803442       0.40398223      -0.61957769       0.00000000
Si      -2.02888692       1.25323531      -0.49536019       0.00000000
Si       1.13148711      -0.81614034       2.02642671       0.00000000
Si       0.06599079      -1.61592957      -1.88501778       0.00000000
Si      -1.84715568       2.38157845       1.81858543       0.00000000
Si       1.98563697       0.87809290      -2.84114942       0.00000000
Si       3.19279113      -1.48013613       0.64545062       0.00000000
Si      -1.10135061       2.68631548      -2.36431891       0.00000000
Si       0.35064225      -0.44728756      -3.87496846       0.00000000
Si      -0.14696838      -2.42463033       3.29517610       0.00000000
