10
Lattice="16.28999089631971 0.0 0.0 0.0 16.28999089631971 0.0 0.0 0.0 34.31420841018396" Properties=species:S:1:pos:R:3:initial_magmoms:R:1 pbc="T T T"
Si      -1.32535440      -1.38072411       1.35980421       0.00000000
Si      -1.35705474       1.35576783      -1.36086795       0.00000000
Si       1.35863487      -1.35896067      -1.35983853       0.00000000
Si       1.35158130       1.35229806       1.38650068       0.00000000
Si       2.53469142      -0.21745521       2.82948258       0.00000000
Si      -2.82449052      -0.13408299       2.59587132       0.00000000
Si      -2.71632492       2.71298547       0.00027451       0.00000000
Si      -2.71365336      -2.71663443       0.00140688       0.00000000
Si       2.71674846       2.71440270       0.00096080       0.00000000
Si      -0.00003258       2.71420848      -2.71792702       0.00000000
