10
Lattice="16.28999089631971 0.0 0.0 0.0 16.28999089631971 0.0 0.0 0.0 34.31420841018396" Properties=species:S:1:pos:R:3:initial_magmoms:R:1 pbc="T T T"
Si      -1.59026238      -1.22486139      -1.18490459       0.00000000
Si       2.14369884      -0.14517648      -0.91649870       0.00000000
Si      -0.48865113      -0.91875600       2.15170796       0.00000000
Si      -0.37766736       2.36516139       0.02837787       0.00000000
Si      -0.61002792      -3.36790863      -1.01453445       0.00000000
Si      -3.53040138      -0.72332487       0.01197567       0.00000000
Si      -2.11121658       2.66704767       1.55975321       0.00000000
Si       1.97069904       0.55685736      -3.18508092       0.00000000
Si      -2.79078651      -1.59612678       2.00285284       0.00000000
Si       3.70384101       0.53610390       0.70742212       0.00000000
