10
Lattice="16.28999089631971 0.0 0.0 0.0 16.28999089631971 0.0 0.0 0.0 34.31420841018396" Properties=species:S:1:pos:R:3:initial_magmoms:R:1 pbc="T T T"
Si       1.35505107       1.33353198       1.36917199       0.00000000
Si      -1.36041048       1.35389448      -1.35839733       0.00000000
Si       1.35633798      -1.35948521      -1.35877478       0.00000000
Si      -1.35329175      -1.37922543       1.37620641       0.00000000
Si       2.52462420      -0.23263749       2.77159448       0.00000000
Si      -0.04541652       2.63865420       2.74421172       0.00000000
Si      -0.00195480       2.71305063      -2.71590249       0.00000000
Si       2.71305861      -0.00205254      -2.71593680       0.00000000
Si       2.71476108       2.71603170      -0.00020589       0.00000000
Si      -2.71523349      -2.71634840       0.00301965       0.00000000
