10
Lattice="16.28999089631971 0.0 0.0 0.0 16.28999089631971 0.0 0.0 0.0 34.31420841018396" Properties=species:S:1:pos:R:3:initial_magmoms:R:1 pbc="T T T"
Si       1.53790210      -1.12353270      -1.41117261       0.00000000
Si      -1.16957313       1.56616947      -1.40242248       0.00000000
Si       1.48003025       1.33206588       1.38073589       0.00000000
Si      -1.32507747      -1.32002268       1.61503344       0.00000000
Si       1.65956886      -0.37618497       3.16305118       0.00000000
Si      -0.89301780       0.99989649       3.43910915       0.00000000
Si       0.18949293      -2.48693633      -2.77437393       0.00000000
Si      -2.52462420       0.23263749      -2.77159448       0.00000000
Si      -2.65220748      -2.67674741       0.04690755       0.00000000
Si       2.90169602      -2.43027822      -0.01451492       0.00000000
