10
Lattice="16.28999089631971 0.0 0.0 0.0 16.28999089631971 0.0 0.0 0.0 34.31420841018396" Properties=species:S:1:pos:R:3:initial_magmoms:R:1 pbc="T T T"
Si       2.02448862       0.99549819       0.53190484       0.00000000
Si       1.59242895      -1.32442098      -1.29217087       0.00000000
Si      -1.20505275       1.69619625      -1.54643929       0.00000000
Si      -0.79938288      -1.22658324       2.40518715       0.00000000
Si       1.58423508       1.09962387       2.76744245       0.00000000
Si      -0.86193648       1.11974202       3.07719699       0.00000000
Si      -0.47768796       3.02956533       1.73750091       0.00000000
Si      -2.28043710       2.76835518       0.36057390       0.00000000
Si      -2.30935185       0.17959725      -2.89474824       0.00000000
Si      -3.58129134      -0.79597827       0.99751460       0.00000000
