10
Lattice="16.28999089631971 0.0 0.0 0.0 16.28999089631971 0.0 0.0 0.0 34.31420841018396" Properties=species:S:1:pos:R:3:initial_magmoms:R:1 pbc="T T T"
Si       1.17141390      -1.20649083       1.70757891       0.00000000
Si      -2.10624813      -1.11532385       0.39282928       0.00000000
Si      -0.06255360       2.34632526       0.67200983       0.00000000
Si       0.79938288       1.22658324      -2.40518715       0.00000000
Si      -2.78190846       0.43060497      -1.40767256       0.00000000
Si       2.38361796       2.32620711       0.36225530       0.00000000
Si      -2.47441842       2.55863283      -0.24325356       0.00000000
Si      -0.23734530       1.99512915       2.98475446       0.00000000
Si       0.63055332      -3.46574215       1.36254935       0.00000000
Si       1.09362915       0.20641711       3.62670503       0.00000000
