10
Lattice="16.28999089631971 0.0 0.0 0.0 16.28999089631971 0.0 0.0 0.0 34.31420841018396" Properties=species:S:1:pos:R:3:initial_magmoms:R:1 pbc="T T T"
Si      -2.28472137       0.38592639       0.18011538       0.00000000
Si      -0.24283503      -2.01212451       1.14441380       0.00000000
Si       0.98380197       1.70854407       1.33420580       0.00000000
Si       0.34552719      -0.13284495      -2.37310335       0.00000000
Si      -0.95114052      -0.84541842       3.11597206       0.00000000
Si      -2.22570270       2.71601541      -0.20873345       0.00000000
Si      -3.17567034      -1.53290529      -0.98698013       0.00000000
Si      -0.17687682       3.63263742       0.62657780       0.00000000
Si       1.85378964      -2.96526544       1.26465086       0.00000000
Si      -1.75047453      -3.29400742      -0.13156075       0.00000000
