10
Lattice="16.28999089631971 0.0 0.0 0.0 16.28999089631971 0.0 0.0 0.0 34.31420841018396" Properties=species:S:1:pos:R:3:initial_magmoms:R:1 pbc="T T T"
Si      -2.26745397      -0.06933024       0.69956416       0.00000000
Si       0.88166271       1.56331872       1.55467471       0.00000000
Si       0.20681784       0.63496791      -2.29836696       0.00000000
Si       0.02006928      -2.38824432       0.25224389       0.00000000
Si       0.61188498      -2.84794812      -1.93889112       0.00000000
Si      -0.83059452      -1.29494097      -3.21215484       0.00000000
Si       1.28960178       0.09040950       3.39549576       0.00000000
Si      -0.71796546       2.83175586      -2.26861653       0.00000000
Si       2.81794913      -1.34100909       2.14357548       0.00000000
Si      -0.68090571       3.40737930       1.58864579       0.00000000
