10
Lattice="16.28999089631971 0.0 0.0 0.0 16.28999089631971 0.0 0.0 0.0 34.31420841018396" Properties=species:S:1:pos:R:3:initial_magmoms:R:1 pbc="T T T"
Si      -1.34864910      -1.36531377       1.37988833       0.00000000
Si       1.36638891       1.35148356       1.37662848       0.00000000
Si       1.25022492      -1.52402724      -1.37274067       0.00000000
Si      -1.39435884       1.33273377      -1.47923488       0.00000000
Si      -2.69962767       2.69061930       0.02670333       0.00000000
Si       0.16229727       2.61897588      -2.76624630       0.00000000
Si      -2.70249471      -2.69700498       0.00656431       0.00000000
Si       2.73424392       2.69943219      -0.00479027       0.00000000
Si       2.70793557      -2.73523761       0.00667069       0.00000000
Si      -2.70669753      -0.00804726       2.73708466       0.00000000
