10
Lattice="16.28999089631971 0.0 0.0 0.0 16.28999089631971 0.0 0.0 0.0 34.31420841018396" Properties=species:S:1:pos:R:3:initial_magmoms:R:1 pbc="T T T"
Si      -1.35444834       1.35177678       1.35548062       0.00000000
Si      -1.35576783      -1.35900954      -1.35651004       0.00000000
Si       1.35874890       1.35578412      -1.35740221       0.00000000
Si       1.35565380      -1.35736425       1.36110815       0.00000000
Si       2.71450044       2.71039536       0.00116668       0.00000000
Si      -2.71246419       2.71314837       0.00137257       0.00000000
Si      -0.00780291       2.69915526       2.72640264       0.00000000
Si      -2.68737759      -0.00418653       2.73858419       0.00000000
Si      -2.71344159      -0.00140094      -2.71353480       0.00000000
Si       0.00118917       2.71357191      -2.71391226       0.00000000
