10
Lattice="16.28999089631971 0.0 0.0 0.0 16.28999089631971 0.0 0.0 0.0 34.31420841018396" Properties=species:S:1:pos:R:3:initial_magmoms:R:1 pbc="T T T"
Si      -0.49098060      -2.25613242       0.29355822       0.00000000
Si      -1.24054866       0.81445113      -1.80084498       0.00000000
Si       2.20113153       0.72329229      -0.33627943       0.00000000
Si      -0.67914639       1.35280305       1.79768807       0.00000000
Si      -1.92687894      -2.41245126      -1.63654846       0.00000000
Si      -1.21171536      -2.15355429       2.55764527       0.00000000
Si      -0.66059208       3.51883548       0.38555466       0.00000000
Si       0.40395942       1.05445170      -3.42641288       0.00000000
Si       1.15561327       1.29500613       3.25487606       0.00000000
Si       2.05998520       2.15466201      -2.19062029       0.00000000
