10
Lattice="16.28999089631971 0.0 0.0 0.0 16.28999089631971 0.0 0.0 0.0 34.31420841018396" Properties=species:S:1:pos:R:3:initial_magmoms:R:1 pbc="T T T"
Si       1.83475966      -0.05779692       1.45718799       0.00000000
Si       0.67914639      -1.35280305      -1.79768807       0.00000000
Si      -1.39075875      -1.32963867       1.51257115       0.00000000
Si       0.01855431       2.16603243      -1.41213341       0.00000000
Si       0.84931173       1.83472641       2.55122851       0.00000000
Si       3.60017864       0.28277811      -0.09494747       0.00000000
Si      -0.53256897      -3.50635734       0.75995720       0.00000000
Si       2.88027792      -0.62951076      -2.13396750       0.00000000
Si      -0.56140227      -0.53835192      -3.59853305       0.00000000
Si      -1.54158786       1.48475205      -3.03605423       0.00000000
