10
Lattice="16.28999089631971 0.0 0.0 0.0 16.28999089631971 0.0 0.0 0.0 34.31420841018396" Properties=species:S:1:pos:R:3:initial_magmoms:R:1 pbc="T T T"
Si      -1.92774231      -0.81396243      -1.14585500       0.00000000
Si       0.84196494       1.92485898      -1.15889441       0.00000000
Si       1.94443956      -1.42804656       0.08290317       0.00000000
Si      -1.35018036      -0.84382200       2.00813723       0.00000000
Si      -0.39913758      -1.96946100      -2.61014604       0.00000000
Si       2.32588620       0.76914864      -2.61275392       0.00000000
Si       1.05893145      -3.22947621      -1.22820915       0.00000000
Si      -0.22524183      -3.00477195       2.11756530       0.00000000
Si      -3.20484573      -1.91637189       0.63869072       0.00000000
Si       3.72481880      -0.51696315      -1.20611079       0.00000000
