10
Lattice="16.28999089631971 0.0 0.0 0.0 16.28999089631971 0.0 0.0 0.0 34.31420841018396" Properties=species:S:1:pos:R:3:initial_magmoms:R:1 pbc="T T T"
Si       1.78037924       0.91108341      -1.28901396       0.00000000
Si      -0.88550811      -1.80142965      -1.31111232       0.00000000
Si       0.15363099      -1.07714367       2.14059015       0.00000000
Si      -1.94443956       1.42804656      -0.08290317       0.00000000
Si      -2.16968139      -1.57672539       2.03466212       0.00000000
Si       0.38144664       2.19719520      -2.69565709       0.00000000
Si      -2.34357714      -0.54141444      -2.69304921       0.00000000
Si      -1.10247462       3.35290554      -1.24179758       0.00000000
Si      -2.01082131      -3.15384174       0.24225845       0.00000000
Si      -3.29461992       0.58422456       1.92523405       0.00000000
