10
Lattice="16.28999089631971 0.0 0.0 0.0 16.28999089631971 0.0 0.0 0.0 34.31420841018396" Properties=species:S:1:pos:R:3:initial_magmoms:R:1 pbc="T T T"
Si      -0.87468245      -0.38029005      -2.08610743       0.00000000
Si      -1.91085677      -0.75150657       1.17580789       0.00000000
Si       0.95829835       1.98687501       1.10145239       0.00000000
Si       2.00810088      -1.62202788      -0.15644684       0.00000000
Si      -0.45314612      -1.96271694       2.55521925       0.00000000
Si       2.28635037       0.76092219       2.57643231       0.00000000
Si       0.85232049      -3.38545296       1.12601452       0.00000000
Si       2.65893525       2.70585045      -0.44231867       0.00000000
Si      -0.14385210       1.19226510      -3.63934094       0.00000000
Si       3.69198189      -0.51085440       1.18134621       0.00000000
