10
Lattice="16.28999089631971 0.0 0.0 0.0 16.28999089631971 0.0 0.0 0.0 34.31420841018396" Properties=species:S:1:pos:R:3:initial_magmoms:R:1 pbc="T T T"
Si      -1.35363449      -1.34144892      -1.38464771       0.00000000
Si       1.36355771       1.37319813      -1.38622617       0.00000000
Si      -1.31102686       1.45349154       1.38656931       0.00000000
Si       1.19153531      -1.57319046       1.49664935       0.00000000
Si      -2.69803518      -2.70060507      -0.00991681       0.00000000
Si       2.70963299      -2.69917155      -0.01187272       0.00000000
Si       2.69414120       2.73282669      -0.03153478       0.00000000
Si       0.00347954      -2.70053991      -2.74239307       0.00000000
Si      -2.70995946       2.73960333      -0.02007382       0.00000000
Si      -2.71267989       0.01223379      -2.74270190       0.00000000
