10
Lattice="16.28999089631971 0.0 0.0 0.0 16.28999089631971 0.0 0.0 0.0 34.31420841018396" Properties=species:S:1:pos:R:3:initial_magmoms:R:1 pbc="T T T"
Si       0.90101619       1.65882699      -1.62313159       0.00000000
Si      -1.63816024      -0.92532087      -1.73382929       0.00000000
Si      -1.91738906       0.50634207       1.85169866       0.00000000
Si       1.91848959      -2.03390424      -0.40432454       0.00000000
Si       2.27880810       0.58150413       2.00247538       0.00000000
Si      -2.87520848      -2.43714690      -0.41606001       0.00000000
Si      -0.28505057      -2.20033917      -3.14925687       0.00000000
Si       2.54220111       2.99367846      -0.43949663       0.00000000
Si       2.41911387       0.53284590      -3.13165367       0.00000000
Si      -3.81862754      -0.76734045       1.00235290       0.00000000
