10
Lattice="16.28999089631971 0.0 0.0 0.0 16.28999089631971 0.0 0.0 0.0 34.31420841018396" Properties=species:S:1:pos:R:3:initial_magmoms:R:1 pbc="T T T"
Si      -1.40330205      -1.59847254       1.04092209       0.00000000
Si      -0.76281183       2.17953684       0.65890180       0.00000000
Si       2.28092580      -0.10673208       0.82886017       0.00000000
Si       0.08026083      -1.18956096      -2.18801241       0.00000000
Si       1.87245405       1.05103080       2.86225267       0.00000000
Si       0.92170449       3.00040623       2.04262303       0.00000000
Si      -0.61838469      -3.72964437       0.36407395       0.00000000
Si       0.90841185      -3.38605569      -1.46346749       0.00000000
Si      -1.20704013      -1.31909904       3.37006892       0.00000000
Si      -3.61502956      -1.32382314       0.15094829       0.00000000
