10
Lattice="16.28999089631971 0.0 0.0 0.0 16.28999089631971 0.0 0.0 0.0 34.31420841018396" Properties=species:S:1:pos:R:3:initial_magmoms:R:1 pbc="T T T"
Si       1.68451632       0.82086939       1.38372123       0.00000000
Si      -0.54595935       1.39111713      -1.81107062       0.00000000
Si      -1.90054453      -0.21937743       1.40897650       0.00000000
Si       0.76281183      -2.17953684      -0.65890180       0.00000000
Si       2.63526588      -1.12850604       2.20335087       0.00000000
Si       1.01862999       3.18971232      -1.57121417       0.00000000
Si       0.75478086       2.71417464       2.49601691       0.00000000
Si      -3.55657031      -1.31958774       0.17318391       0.00000000
Si      -2.85398031       1.99565532      -1.52372328       0.00000000
Si       3.04373763      -2.28626892       0.16995837       0.00000000
