10
Lattice="16.28999089631971 0.0 0.0 0.0 16.28999089631971 0.0 0.0 0.0 34.31420841018396" Properties=species:S:1:pos:R:3:initial_magmoms:R:1 pbc="T T T"
Si       0.77999778      -0.54340182      -2.13705578       0.00000000
Si       0.54595935      -1.39111713       1.81107062       0.00000000
Si       1.56458934       1.79859519       0.23985645       0.00000000
Si      -2.30802096       0.60453819       0.28734734       0.00000000
Si      -1.06840083       0.66075498      -3.31228376       0.00000000
Si      -2.38357886       1.96770168      -1.77603579       0.00000000
Si       3.70028979       0.86051925       0.03163772       0.00000000
Si       3.33335754      -0.38245662      -1.81710992       0.00000000
Si       1.25923329       2.73211712       2.37475043       0.00000000
Si      -1.35458518      -1.61049456       3.22004712       0.00000000
