10
Lattice="10.86 0.0 0.0 0.0 10.86 0.0 0.0 0.0 10.86" Properties=species:S:1:pos:R:3:initial_magmoms:R:1 pbc="T T T"
Si       1.27860210      -1.40006034      -1.30889064       0.00000000
Si      -1.43639790       1.31493966      -1.30889064       0.00000000
Si      -1.43639790      -1.40006034       1.40610936       0.00000000
Si      -2.57894592       0.14336286       2.63358258       0.00000000
Si       2.63610210      -0.04256034      -2.66639064       0.00000000
Si      -0.07889790       2.67243966      -2.66639064       0.00000000
Si       2.44709466      -0.10868688       2.87882310       0.00000000
Si       2.63610210      -2.75756034       0.04860936       0.00000000
Si      -0.07889790      -2.75756034      -2.66639064       0.00000000
Si      -2.74725420       2.68988082      -0.01240212       0.00000000
