10
Lattice="16.2900001489832 0.0 0.0 0.0 16.2900001489832 0.0 0.0 0.0 29.11971093458229" Properties=species:S:1:pos:R:3:initial_magmoms:R:1 pbc="T T T"
Si      -0.25625799       1.35739684      -1.89086921       0.00000000
Si       0.83088775       1.82619047       1.28179610       0.00000000
Si      -1.92590156      -0.83692645       1.17256224       0.00000000
Si       1.61085295      -1.82216847      -0.06855770       0.00000000
Si       2.09543827       0.55697140       2.74352987       0.00000000
Si      -0.70605748      -2.26795898       2.57390173       0.00000000
Si      -2.62241309       1.60823026      -1.82718440       0.00000000
Si       3.32301016      -0.73964583       1.21357735       0.00000000
Si       2.43388078       2.91680598      -0.10821875       0.00000000
Si       0.62894062      -3.62423181       1.13019306       0.00000000
