10
Lattice="16.2900001489832 0.0 0.0 0.0 16.2900001489832 0.0 0.0 0.0 29.11971093458229" Properties=species:S:1:pos:R:3:initial_magmoms:R:1 pbc="T T T"
Si      -1.92456578       1.39517824      -0.36338487       0.00000000
Si      -0.06501339      -1.10516248      -2.13965812       0.00000000
Si       0.18024885      -1.93148414       1.43228210       0.00000000
Si       0.81614530       1.60944061       1.67505313       0.00000000
Si       2.40559319       0.85141803      -0.48283393       0.00000000
H       -2.55843412      -1.39328876      -0.09466818       0.00000000
H        2.78660001      -0.61042051      -0.70297894       0.00000000
H        1.33781626       0.67102257       2.72219794       0.00000000
Si       1.78393421       2.21762777      -2.32439357       0.00000000
Si      -2.87846746       1.51389976       1.85058675       0.00000000
