10
Lattice="16.2900001489832 0.0 0.0 0.0 16.2900001489832 0.0 0.0 0.0 29.11971093458229" Properties=species:S:1:pos:R:3:initial_magmoms:R:1 pbc="T T T"
Si      -0.97454926      -0.65795311       2.05448297       0.00000000
Si       2.31067136      -0.61955758      -0.09868670       0.00000000
Si      -0.86555287       2.22338954      -0.28464517       0.00000000
Si      -2.36806103       1.15460263      -1.79825863       0.00000000
Si      -0.99207730      -0.27487746      -3.11286798       0.00000000
H        0.72899380      -2.10862649      -2.62668529       0.00000000
Si       2.51664212      -1.16712964       2.21836870       0.00000000
Si      -3.70268934      -0.35280882      -0.56544655       0.00000000
Si       0.75518812      -0.70180579       3.64296320       0.00000000
Si       3.25524702       0.91852795      -1.70586179       0.00000000
