10
Lattice="16.2900001489832 0.0 0.0 0.0 16.2900001489832 0.0 0.0 0.0 29.11971093458229" Properties=species:S:1:pos:R:3:initial_magmoms:R:1 pbc="T T T"
Si       1.66076552       1.11048931       1.09207652       0.00000000
Si      -1.76145401       0.46532385       1.42459450       0.00000000
Si      -0.20597076       0.54757206      -2.31705540       0.00000000
Si       0.59828284      -2.35448820       0.17736816       0.00000000
Si       1.11021238      -1.65871298      -2.14443375       0.00000000
Si       1.13130793       0.15943023       3.23109401       0.00000000
Si      -3.49119138       0.50917653      -0.16388573       0.00000000
Si      -2.51664212       1.16712964      -2.21836870       0.00000000
Si      -1.13979502      -0.90088588       3.26615414       0.00000000
Si       3.62711514       0.43192935      -0.09053318       0.00000000
