10
Lattice="16.2900001489832 0.0 0.0 0.0 16.2900001489832 0.0 0.0 0.0 29.11971093458229" Properties=species:S:1:pos:R:3:initial_magmoms:R:1 pbc="T T T"
H        0.38100681      -1.46183855      -0.22014501       0.00000000
Si      -0.62165899       1.36620973      -1.84155964       0.00000000
Si       2.27110295       1.06031611      -0.03506013       0.00000000
Si      -2.40559319      -0.85141803       0.48283393       0.00000000
Si      -1.58944789       0.75802258       2.15788706       0.00000000
Si      -1.05055840       3.08977320      -0.29215806       0.00000000
Si      -0.30255417       2.72389979       1.88570512       0.00000000
H       -1.06777693      -0.18039546       3.20503186       0.00000000
H        2.61193862      -1.93543609       1.24891528       0.00000000
Si      -2.47060658      -1.95658051      -1.65682419       0.00000000
