10
Lattice="16.2900001489832 0.0 0.0 0.0 16.2900001489832 0.0 0.0 0.0 29.11971093458229" Properties=species:S:1:pos:R:3:initial_magmoms:R:1 pbc="T T T"
Si       1.35782038      -1.30776121      -1.43452432       0.00000000
Si       0.98468164       1.90360055       1.03535132       0.00000000
Si      -1.50392539       1.28133883      -1.39005852       0.00000000
Si      -0.94457566      -1.53808552       1.60717509       0.00000000
Si      -3.25524702      -0.91852795       1.70586179       0.00000000
Si      -2.73147464       2.72324819       0.05387147       0.00000000
Si      -0.73430434       3.60773004       1.15905185       0.00000000
Si       2.58595607       0.09164754      -2.89254825       0.00000000
Si       3.17316171      -2.23321241      -0.14877260       0.00000000
Si      -0.06056622      -2.66742236      -2.85425583       0.00000000
