10
Lattice="16.2900001489832 0.0 0.0 0.0 16.2900001489832 0.0 0.0 0.0 29.11971093458229" Properties=species:S:1:pos:R:3:initial_magmoms:R:1 pbc="T T T"
Si      -1.17921682      -1.65442871      -1.19536413       0.00000000
Si      -1.72605584       1.59935221      -0.31950147       0.00000000
Si       1.28808289       1.71660764      -1.07632276       0.00000000
Si       0.32358456      -0.46625238       2.36824785       0.00000000
Si       2.10505898       1.12616029       2.61483356       0.00000000
H        2.34354458      -2.76615606      -0.52415480       0.00000000
Si       0.47661282       3.64860165       0.01327859       0.00000000
Si      -3.42036246      -1.36373365      -0.39870708       0.00000000
Si      -3.77501205       0.74122759       0.55723479       0.00000000
H        2.77881339      -1.26348499      -2.42677847       0.00000000
