10
Lattice="16.2900001489832 0.0 0.0 0.0 16.2900001489832 0.0 0.0 0.0 29.11971093458229" Properties=species:S:1:pos:R:3:initial_magmoms:R:1 pbc="T T T"
Si      -1.23504265       1.99319555      -0.32960601       0.00000000
Si       1.81734500       0.89855641       1.22506624       0.00000000
Si      -0.10107945      -1.77499100      -1.58664569       0.00000000
Si      -1.25059960      -1.68161672       1.23633557       0.00000000
Si       2.10158921       0.27425844      -1.25386563       0.00000000
Si       0.28730673       2.08187831       2.68847169       0.00000000
Si      -2.15003567      -2.63311562      -0.70990943       0.00000000
Si      -0.71895916       2.29658051      -2.64736028       0.00000000
Si      -2.74556550      -0.31493457       2.35488190       0.00000000
Si      -3.35251461       1.29627676       0.53918057       0.00000000
