10
Lattice="16.2900001489832 0.0 0.0 0.0 16.2900001489832 0.0 0.0 0.0 29.11971093458229" Properties=species:S:1:pos:R:3:initial_magmoms:R:1 pbc="T T T"
Si      -1.34216569      -1.27669618      -1.47738853       0.00000000
Si      -1.22754925       1.44190936       1.44392999       0.00000000
Si       1.29800350       1.42161202      -1.42977781       0.00000000
Si       1.50392539      -1.28133883       1.39005852       0.00000000
Si       2.48860703       0.62226172       2.42540984       0.00000000
Si       0.76962106       2.32639121       2.54911038       0.00000000
Si      -2.74339893      -2.47474424      -0.01694767       0.00000000
Si      -2.61687449       0.02352276       2.81127513       0.00000000
Si      -2.57585627       2.85224871      -0.03904953       0.00000000
Si       2.86174578      -2.58910004      -0.04446580       0.00000000
