10
Lattice="16.2900001489832 0.0 0.0 0.0 16.2900001489832 0.0 0.0 0.0 29.11971093458229" Properties=species:S:1:pos:R:3:initial_magmoms:R:1 pbc="T T T"
Si      -2.20994215      -0.58341007       0.49381206       0.00000000
Si       1.23817848      -1.73612306      -1.00294108       0.00000000
Si       0.78266120       2.09214101      -0.89971171       0.00000000
Si       0.69376341       0.56329192       2.25587197       0.00000000
Si       2.22460315       1.81411958       0.95236015       0.00000000
Si      -3.36703715       1.49245723       0.96756064       0.00000000
Si       0.24101870      -2.28481913      -3.14670508       0.00000000
Si       1.84512759      -3.34733439       0.81276025       0.00000000
Si      -2.38900183      -2.10369062       2.37179172       0.00000000
Si       3.91353407       0.65500462      -0.22180484       0.00000000
