10
Lattice="16.2900001489832 0.0 0.0 0.0 16.2900001489832 0.0 0.0 0.0 29.11971093458229" Properties=species:S:1:pos:R:3:initial_magmoms:R:1 pbc="T T T"
Si      -1.34105797       1.38021913      -1.28569348       0.00000000
Si       1.27553959       1.50281767       1.26855944       0.00000000
Si      -1.43348743      -1.34376211       1.32717742       0.00000000
Si       1.36148563      -1.36295173      -1.42417809       0.00000000
Si       2.62164746       0.11007153       2.56793918       0.00000000
Si      -2.48445308      -0.07262082      -2.70934429       0.00000000
Si       2.56288943      -2.72619668       0.05927026       0.00000000
Si       0.05219316       2.52429842      -2.77715848       0.00000000
Si       2.59910210       2.79862203      -0.20051251       0.00000000
Si      -2.78073561       0.04043178       2.67664306       0.00000000
