10
Lattice="16.2900001489832 0.0 0.0 0.0 16.2900001489832 0.0 0.0 0.0 29.11971093458229" Properties=species:S:1:pos:R:3:initial_magmoms:R:1 pbc="T T T"
Si       1.34724817      -1.38419389      -1.34946564       0.00000000
Si       1.38753334       1.32173803       1.37214990       0.00000000
Si      -1.27899307      -1.35969373       1.47916484       0.00000000
Si      -1.37067319       1.39935988      -1.37465419       0.00000000
Si      -2.52086123       0.17212014       2.78297077       0.00000000
Si       2.59486670      -2.79033042       0.08843656       0.00000000
Si      -0.06445953      -2.70414002      -2.69838966       0.00000000
Si      -2.76172518      -2.65642661       0.09958941       0.00000000
Si       0.08899227       2.68250690       2.75839374       0.00000000
Si       2.78073561      -0.04043178      -2.67664306       0.00000000
