10
Lattice="16.2900001489832 0.0 0.0 0.0 16.2900001489832 0.0 0.0 0.0 29.11971093458229" Properties=species:S:1:pos:R:3:initial_magmoms:R:1 pbc="T T T"
Si      -1.27534411       0.01252701       1.92510409       0.00000000
Si      -1.27127161      -0.65318014      -1.88622928       0.00000000
Si       1.79157422      -1.39647655       0.72097492       0.00000000
Si       0.68831767       2.31225149       0.07574037       0.00000000
Si       0.46444419       0.76849705       3.33417778       0.00000000
Si      -2.72233595       1.82798237       1.53026993       0.00000000
Si       3.13945770      -1.52210503      -1.22069828       0.00000000
Si       2.50097114      -0.30745746       2.71931509       0.00000000
Si       0.33005169      -0.68466871      -3.63108236       0.00000000
Si       3.00757386       2.24979563      -0.03814682       0.00000000
