10
Lattice="16.2900001489832 0.0 0.0 0.0 16.2900001489832 0.0 0.0 0.0 29.11971093458229" Properties=species:S:1:pos:R:3:initial_magmoms:R:1 pbc="T T T"
Si      -0.75119707      -1.27083178       0.30826126       0.00000000
Si      -0.95327452       2.35202678      -0.46574066       0.00000000
Si       1.38352600       2.15657610      -0.85690573       0.00000000
Si      -2.81854470      -0.22913514      -0.22867709       0.00000000
Si       0.55723204      -2.58892085      -1.11714859       0.00000000
Si       2.94980952       0.49018239      -0.14507440       0.00000000
Si      -0.89503777      -1.35563752       2.65426165       0.00000000
Si      -2.03177027       0.97814984      -2.15739202       0.00000000
Si      -2.34551567       1.55016782       1.37596458       0.00000000
Si       2.69325830      -1.82578322      -0.64235170       0.00000000
