10
Lattice="16.2900001489832 0.0 0.0 0.0 16.2900001489832 0.0 0.0 0.0 29.11971093458229" Properties=species:S:1:pos:R:3:initial_magmoms:R:1 pbc="T T T"
Si      -1.43915635      -1.01634940       1.61863078       0.00000000
Si       1.17281485       1.56074654       1.44252642       0.00000000
Si      -0.57277270       0.81860020      -2.21318539       0.00000000
Si       0.87770521      -2.08720514      -0.93488832       0.00000000
H       -1.53743392       1.98892757      -2.15025769       0.00000000
Si      -2.56694564      -2.59507847       0.32756763       0.00000000
Si       2.62309727      -2.76280032       0.45374334       0.00000000
Si       2.46096290       0.26007376       3.03263153       0.00000000
Si      -0.87801472      -3.75419343      -0.84659736       0.00000000
Si       1.02154591      -2.00239940      -3.28088871       0.00000000
