10
Lattice="16.2900001489832 0.0 0.0 0.0 16.2900001489832 0.0 0.0 0.0 29.11971093458229" Properties=species:S:1:pos:R:3:initial_magmoms:R:1 pbc="T T T"
Si       2.25018659       0.04253319      -0.67449986       0.00000000
Si      -0.25405884       2.01748394       1.25345796       0.00000000
Si      -1.24299217       0.10580355      -2.04140822       0.00000000
Si      -0.07801281      -1.78958684       1.60336040       0.00000000
H       -2.65696418      -1.29302365      -0.78780466       0.00000000
Si       0.52093791       1.35773893       3.40126960       0.00000000
H       -0.48068532       2.72469800      -2.47019596       0.00000000
Si       0.37251972       0.75919546      -3.63533383       0.00000000
Si       3.40698837       1.47792655       0.81072187       0.00000000
Si      -0.46120248      -0.76734534       3.71526744       0.00000000
