10
Lattice="16.2900001489832 0.0 0.0 0.0 16.2900001489832 0.0 0.0 0.0 29.11971093458229" Properties=species:S:1:pos:R:3:initial_magmoms:R:1 pbc="T T T"
Si       0.97989238      -2.03821524      -0.47025421       0.00000000
Si       2.08525034       0.79299167       0.75090999       0.00000000
Si      -1.66346966      -0.58100957       1.56937770       0.00000000
Si      -0.86576464       0.81412631      -2.05791909       0.00000000
Si       2.95296978       0.74594778      -1.44544421       0.00000000
Si      -3.22975317       1.08538414       0.85754637       0.00000000
Si      -0.35582247      -0.54878795       3.54509185       0.00000000
Si       2.54602928      -1.43801019      -2.14853963       0.00000000
Si      -1.92002087      -2.89697518       1.07210040       0.00000000
Si      -0.79123789      -3.45608057      -0.95958183       0.00000000
