10
Lattice="16.2900001489832 0.0 0.0 0.0 16.2900001489832 0.0 0.0 0.0 29.11971093458229" Properties=species:S:1:pos:R:3:initial_magmoms:R:1 pbc="T T T"
Si       0.96466123      -1.17032737      -0.06292770       0.00000000
H       -1.69596821       0.92752003       1.22291138       0.00000000
Si      -0.45880785       2.12139785      -1.68250778       0.00000000
H       -2.70107425      -1.28296294       0.18790949       0.00000000
Si       2.35690238      -0.36846840      -1.90463293       0.00000000
Si       1.53743392      -1.98892757       2.15025769       0.00000000
Si       0.49163220      -2.94963033      -1.66756937       0.00000000
Si       1.78233779       1.83070280      -2.47916483       0.00000000
Si      -2.57196785       1.04262517      -2.31070730       0.00000000
Si      -1.99858754       1.49107258       2.63084940       0.00000000
