10
Lattice="16.2900001489832 0.0 0.0 0.0 16.2900001489832 0.0 0.0 0.0 29.11971093458229" Properties=species:S:1:pos:R:3:initial_magmoms:R:1 pbc="T T T"
Si       1.78147442       1.59241267       0.24658571       0.00000000
Si       0.78027472      -1.90457795       1.26976500       0.00000000
Si      -1.87610303       0.68310487       1.36923793       0.00000000
Si      -0.32358456       0.46625238      -2.36824785       0.00000000
Si      -0.66303559       1.97426657       2.92516232       0.00000000
Si       2.07941852      -0.78203404       2.88312220       0.00000000
Si       0.83041534       3.22577841       1.58865495       0.00000000
Si       3.42487479       0.52325109       1.47569959       0.00000000
Si      -3.19916055       2.15897888       0.13523194       0.00000000
Si       2.72500751      -2.77467573       0.33909903       0.00000000
