10
Lattice="16.2900001489832 0.0 0.0 0.0 16.2900001489832 0.0 0.0 0.0 29.11971093458229" Properties=species:S:1:pos:R:3:initial_magmoms:R:1 pbc="T T T"
H       -0.59295601      -1.34030863      -0.38240004       0.00000000
Si       1.65548756       0.43746795      -1.57199848       0.00000000
Si      -1.60158394       1.61064118      -0.54614018       0.00000000
Si       0.43416108      -0.03593574       2.31912290       0.00000000
Si      -2.76135051       1.50863320       1.43970763       0.00000000
Si      -2.58061295      -1.41121900      -2.12300165       0.00000000
Si       3.46475271      -0.78110551      -0.74846393       0.00000000
Si       0.26024904      -3.30581118      -1.54753792       0.00000000
Si      -1.04751217       1.74773783       3.04653328       0.00000000
Si       0.49945140      -0.00500103      -3.64939865       0.00000000
