10
Lattice="16.2900001489832 0.0 0.0 0.0 16.2900001489832 0.0 0.0 0.0 29.11971093458229" Properties=species:S:1:pos:R:3:initial_magmoms:R:1 pbc="T T T"
Si       1.39250179       1.33318990      -1.31985672       0.00000000
Si      -1.35625654       1.30948795       1.38595264       0.00000000
Si       1.43562142      -1.30181536       1.31324072       0.00000000
Si      -1.28834353      -1.35425287      -1.41960920       0.00000000
Si       0.11315034       2.76539043       2.49983982       0.00000000
Si      -2.60387507       2.71562447      -0.05194956       0.00000000
Si       2.68247432      -0.09624132      -2.67884742       0.00000000
Si      -2.65662209       0.03855843      -2.75067701       0.00000000
Si      -2.64453491      -2.76462480      -0.08794153       0.00000000
Si      -2.65426004      -0.11212407       2.81573045       0.00000000
