10
Lattice="16.2900001489832 0.0 0.0 0.0 16.2900001489832 0.0 0.0 0.0 29.11971093458229" Properties=species:S:1:pos:R:3:initial_magmoms:R:1 pbc="T T T"
Si      -0.72671320      -2.21947994      -0.27553070       0.00000000
Si      -1.94316896       1.14627844       0.72563408       0.00000000
Si       1.48214566      -0.09949932       1.92641448       0.00000000
Si       0.53683695       0.83862550      -2.24769225       0.00000000
H        2.22156506      -1.47372373      -1.23863602       0.00000000
H        2.03906819       0.60041683      -2.44969568       0.00000000
Si      -3.01982394       2.07216947      -1.26324218       0.00000000
H        0.93468763       3.64948131       1.14504527       0.00000000
Si      -2.44055153      -2.45858456      -1.88235635       0.00000000
Si       3.70893981       0.47594493       1.33470195       0.00000000
