10
Lattice="16.2900001489832 0.0 0.0 0.0 16.2900001489832 0.0 0.0 0.0 29.11971093458229" Properties=species:S:1:pos:R:3:initial_magmoms:R:1 pbc="T T T"
Si       1.64340037      -1.06916158       1.22911388       0.00000000
Si      -0.95105908       1.63336573       1.34206924       0.00000000
Si      -1.78147442      -1.59241267      -0.24658571       0.00000000
Si      -2.10505898      -1.12616029      -2.61483356       0.00000000
Si       0.29794410      -2.37444671       2.63653648       0.00000000
Si       2.43792884      -2.60657921      -0.42756472       0.00000000
Si      -2.44451000       0.38185389       2.67857661       0.00000000
Si      -1.91269037       3.14673933      -0.12262310       0.00000000
Si      -1.00119970      -3.49699062       1.02317928       0.00000000
Si      -0.81697609       0.59044735      -3.69115632       0.00000000
