10
Lattice="16.2900001489832 0.0 0.0 0.0 16.2900001489832 0.0 0.0 0.0 29.11971093458229" Properties=species:S:1:pos:R:3:initial_magmoms:R:1 pbc="T T T"
Si       1.45147159      -1.39460320       1.21038990       0.00000000
Si       1.41402088       1.24752465      -1.45502460       0.00000000
Si      -1.23867532      -1.43133715      -1.48580413       0.00000000
Si      -1.44920728       1.27077411       1.46405171       0.00000000
Si      -2.66605400       2.56087762      -0.15127690       0.00000000
Si      -2.46397655      -0.48288447       2.76552807       0.00000000
Si       2.70967862      -2.68353317      -0.34466090       0.00000000
Si      -2.56499084      -2.90427897      -0.16481756       0.00000000
Si       0.10492389       2.55986275      -2.94056665       0.00000000
Si       2.88961797       2.61583030      -0.15774147       0.00000000
