10
Lattice="16.2900001489832 0.0 0.0 0.0 16.2900001489832 0.0 0.0 0.0 29.11971093458229" Properties=species:S:1:pos:R:3:initial_magmoms:R:1 pbc="T T T"
Si      -1.59956398       1.44871858      -0.85344049       0.00000000
Si       1.73871317       1.50306202       0.35319297       0.00000000
Si       0.03502350      -1.18358254      -2.01482192       0.00000000
Si      -0.11665269      -1.66762361       1.72601263       0.00000000
H       -0.84023821       1.99962521      -2.03797209       0.00000000
H        2.54288531      -1.31564557       1.12914591       0.00000000
H       -1.76963159       2.58378299       0.12212807       0.00000000
Si       3.39265317      -0.19362294       0.54389796       0.00000000
Si      -1.41162625      -2.89295742      -1.27914154       0.00000000
H       -3.18713853       1.02385909       1.28790658       0.00000000
