10
Lattice="16.2900001489832 0.0 0.0 0.0 16.2900001489832 0.0 0.0 0.0 29.11971093458229" Properties=species:S:1:pos:R:3:initial_magmoms:R:1 pbc="T T T"
Si      -1.24644565       0.71935663       1.82335982       0.00000000
Si       0.82034339       1.84760367      -1.24626539       0.00000000
Si      -1.76780711      -0.81507830      -1.39334905       0.00000000
Si       1.68463525      -1.82536782       0.13039807       0.00000000
Si       2.22652211       0.58114901      -2.62383155       0.00000000
Si      -0.52861050      -2.14553148      -2.82798985       0.00000000
Si      -3.21313737      -0.60200836       1.66090095       0.00000000
Si       0.64842346      -3.42717983      -1.27555982       0.00000000
Si      -2.91745758      -2.32708354      -0.03144929       0.00000000
Si       3.44515584      -0.85042760      -1.15631460       0.00000000
