10
Lattice="16.2900001489832 0.0 0.0 0.0 16.2900001489832 0.0 0.0 0.0 29.11971093458229" Properties=species:S:1:pos:R:3:initial_magmoms:R:1 pbc="T T T"
Si       1.09819036      -0.29778120      -1.09394018       0.00000000
Si      -1.53334513       0.41251167       1.54820767       0.00000000
Si       1.68215429      -2.56688048      -0.92236684       0.00000000
Si       0.30955887       0.61796116      -3.13703734       0.00000000
Si       3.03554379       0.93683791      -0.65437814       0.00000000
Si      -0.34391448       2.05700348       2.73356336       0.00000000
Si      -3.27873720       1.08810685       0.15957602       0.00000000
Si       1.57343482      -2.68881113       1.57814273       0.00000000
Si       1.87375727       2.96614839      -0.66404589       0.00000000
Si       2.39190959      -0.80255944       2.83591623       0.00000000
