10
Lattice="16.2900001489832 0.0 0.0 0.0 16.2900001489832 0.0 0.0 0.0 29.11971093458229" Properties=species:S:1:pos:R:3:initial_magmoms:R:1 pbc="T T T"
Si      -0.64588222       0.91440658       2.04148626       0.00000000
Si      -1.20060559      -0.83528605      -1.91307765       0.00000000
Si       0.24299793       2.32712426      -0.57345447       0.00000000
Si       1.57895713      -1.85453507      -0.05599720       0.00000000
Si       0.52743762      -0.00635310      -3.32596602       0.00000000
Si       2.23495544      -1.39419595      -2.34626247       0.00000000
Si       1.40947597       2.06964452      -2.55895284       0.00000000
Si      -2.12473730       2.84447838      -0.72607087       0.00000000
Si      -1.53956791      -0.85605580       3.22194168       0.00000000
Si       1.14611554       2.07378218       3.03775951       0.00000000
