10
Lattice="16.2900001489832 0.0 0.0 0.0 16.2900001489832 0.0 0.0 0.0 29.11971093458229" Properties=species:S:1:pos:R:3:initial_magmoms:R:1 pbc="T T T"
Si       0.73976149      -0.47866536       2.11947816       0.00000000
Si       1.56903164      -0.95737960      -1.42593400       0.00000000
Si      -2.13584708       0.68994667      -0.76017005       0.00000000
Si       0.68048706       2.22355244       0.50313037       0.00000000
Si      -1.20581839       2.85552300      -0.82391310       0.00000000
Si       2.90476767       0.42090102       2.07786609       0.00000000
Si       0.33589508      -2.39756222      -2.75979148       0.00000000
Si      -0.79550587      -0.03109761       3.82449548       0.00000000
Si      -1.73089397      -3.52580926       0.30983372       0.00000000
Si      -3.76080717       0.74500687       0.92356075       0.00000000
