10
Lattice="16.2900001489832 0.0 0.0 0.0 16.2900001489832 0.0 0.0 0.0 29.11971093458229" Properties=species:S:1:pos:R:3:initial_magmoms:R:1 pbc="T T T"
Si       1.48111125      -0.54657838       1.81893362       0.00000000
Si       0.65599831       0.46033911      -2.29026526       0.00000000
Si      -1.20902752      -2.10598751       0.03628316       0.00000000
Si      -1.57895713       1.85453507       0.05599720       0.00000000
Si      -2.77956273       1.01924902      -1.85708045       0.00000000
Si      -0.12188178      -1.63719388       3.20894847       0.00000000
Si      -1.11948139      -2.60350040      -2.24766313       0.00000000
Si       0.65234935      -1.58676004      -3.36620946       0.00000000
Si      -1.05151951       1.84818197      -3.26996882       0.00000000
Si      -3.57518262      -1.85515409       0.09996797       0.00000000
