10
Lattice="16.2900001489832 0.0 0.0 0.0 16.2900001489832 0.0 0.0 0.0 29.11971093458229" Properties=species:S:1:pos:R:3:initial_magmoms:R:1 pbc="T T T"
Si      -1.34496757       1.49319028      -1.09708511       0.00000000
Si       2.07713727      -0.01826109      -0.96304708       0.00000000
Si      -0.83649151      -2.11242206      -0.51128388       0.00000000
Si       0.64029475       0.15164361       2.28950815       0.00000000
H       -0.77370985       2.01774458       1.93308289       0.00000000
H        2.94948372      -0.86444515      -0.02460616       0.00000000
H       -0.59121298      -0.05639598       3.14414255       0.00000000
Si       1.73636741      -1.93728827       2.18980226       0.00000000
Si       0.97277365      -3.33099552       0.31225066       0.00000000
Si      -3.28647495       1.24440940       0.17780496       0.00000000
