10
Lattice="16.2900001489832 0.0 0.0 0.0 16.2900001489832 0.0 0.0 0.0 29.11971093458229" Properties=species:S:1:pos:R:3:initial_magmoms:R:1 pbc="T T T"
Si      -0.06734286      -0.18609696      -1.52520310       0.00000000
Si      -1.97622137      -0.82129294       1.78864912       0.00000000
Si       1.61807105       2.24860646       0.54416004       0.00000000
Si       2.11295963      -0.84082465      -1.76453800       0.00000000
Si      -2.82975222      -0.81231715      -0.47808741       0.00000000
Si      -0.98512147       1.91099621      -2.10244313       0.00000000
Si      -1.37029852      -2.06977484      -1.75160885       0.00000000
Si      -1.09418302       1.25470468       2.55566231       0.00000000
Si       1.27247707       1.07771383       2.63387785       0.00000000
Si       1.78632884      -1.19581633       2.34768933       0.00000000
