10
Lattice="16.2900001489832 0.0 0.0 0.0 16.2900001489832 0.0 0.0 0.0 29.11971093458229" Properties=species:S:1:pos:R:3:initial_magmoms:R:1 pbc="T T T"
Si      -1.23817848       1.73612306       1.00294108       0.00000000
Si       2.11747196       0.69691879      -0.86878658       0.00000000
Si      -0.99715978      -0.54869608      -2.14376400       0.00000000
Si       0.60694912      -1.61121133       1.81570134       0.00000000
Si       3.35251461      -1.29627676      -0.53918057       0.00000000
Si       2.67535559       2.39112767       0.78113625       0.00000000
Si       2.10191501      -2.97789348       0.69715500       0.00000000
Si      -0.48330801      -2.82222624      -2.42995252       0.00000000
Si      -0.45551727       3.82826407       0.10322938       0.00000000
Si      -3.44812062       1.15271299       1.49675314       0.00000000
