10
Lattice="16.2900001489832 0.0 0.0 0.0 16.2900001489832 0.0 0.0 0.0 29.11971093458229" Properties=species:S:1:pos:R:3:initial_magmoms:R:1 pbc="T T T"
Si       1.84870488      -1.10653084       0.89805189       0.00000000
Si      -1.54067563      -0.16592994       1.77953465       0.00000000
Si       0.71003224       2.23777361      -0.31085291       0.00000000
Si      -0.75448765      -1.44414109      -1.74855128       0.00000000
H        0.23063382      -3.35513730       0.35389185       0.00000000
Si      -1.30430773       3.31820787      -0.69287440       0.00000000
Si       3.38050083       0.58792240       1.32529628       0.00000000
Si      -0.86354920      -2.10043262       2.90955416       0.00000000
Si       2.96303700      -2.00727011      -1.00096094       0.00000000
Si       0.16329096      -3.54123426      -1.17131125       0.00000000
