10
Lattice="16.2900001489832 0.0 0.0 0.0 16.2900001489832 0.0 0.0 0.0 29.11971093458229" Properties=species:S:1:pos:R:3:initial_magmoms:R:1 pbc="T T T"
Si       0.84976786       1.12202263      -0.58524795       0.00000000
Si      -1.11283507      -0.42925779       2.43429136       0.00000000
Si      -2.65953800      -0.35197803       0.59686672       0.00000000
Si       2.22443210       1.58881258       1.24533356       0.00000000
Si      -0.80417215       2.81870760      -0.77595294       0.00000000
Si      -2.54288531       1.31564557      -1.12914591       0.00000000
Si       1.49486815       0.38286387      -2.72307153       0.00000000
Si       0.65829520       0.98860753       2.92361898       0.00000000
Si      -0.09443313      -2.51437781       2.74916279       0.00000000
Si      -2.87785659      -2.50320287      -0.41941120       0.00000000
