10
Lattice="16.2900001489832 0.0 0.0 0.0 16.2900001489832 0.0 0.0 0.0 29.11971093458229" Properties=species:S:1:pos:R:3:initial_magmoms:R:1 pbc="T T T"
Si      -0.73976149       0.47866536      -2.11947816       0.00000000
Si       0.58197492      -2.20664342       0.49553012       0.00000000
Si      -1.53526735       0.44756775       1.70501731       0.00000000
Si       2.16500618       0.89956639      -0.04161207       0.00000000
Si      -0.05927442       2.70221780      -1.61634779       0.00000000
H        0.44144271       2.91411813       1.36816050       0.00000000
Si       2.53022798       0.53540343       2.23735475       0.00000000
Si      -1.51958008      -3.08887236       0.31947235       0.00000000
Si       1.57864762      -1.65016073       2.62400627       0.00000000
Si      -2.62949924      -1.67953160       1.81925394       0.00000000
