10
Lattice="16.2900001489832 0.0 0.0 0.0 16.2900001489832 0.0 0.0 0.0 29.11971093458229" Properties=species:S:1:pos:R:3:initial_magmoms:R:1 pbc="T T T"
Si      -0.88562215       1.75508462       1.24789609       0.00000000
Si      -0.36522180       0.36416295      -2.27896682       0.00000000
Si       2.32802021       0.36044883      -0.02495559       0.00000000
Si      -0.95158036      -2.18556416       0.38665152       0.00000000
H       -2.08878527       2.37871469      -0.86919425       0.00000000
Si      -2.53022798      -0.53540343      -2.23735475       0.00000000
Si       2.75691963      -1.36311463      -1.57435717       0.00000000
Si       0.51419385       3.48377943       0.13089310       0.00000000
Si       1.02718225      -1.31926195      -3.16283740       0.00000000
Si       1.78913072      -1.97130179       2.42508953       0.00000000
