10
Lattice="16.2900001489832 0.0 0.0 0.0 16.2900001489832 0.0 0.0 0.0 29.11971093458229" Properties=species:S:1:pos:R:3:initial_magmoms:R:1 pbc="T T T"
Si      -1.32305752       1.47587401      -1.23400599       0.00000000
Si       1.21306744       1.29116170       1.55592439       0.00000000
Si      -1.46934172      -1.36459702       1.33466992       0.00000000
Si       1.87610303      -0.68310487      -1.36923793       0.00000000
Si       2.65637774      -2.58768281      -0.09947293       0.00000000
Si       2.70651836       2.54267354       0.21941702       0.00000000
Si       2.58134600      -0.10164960       2.88699221       0.00000000
Si      -0.09117513      -2.82321993       2.65378409       0.00000000
Si      -2.22249359       0.52437510      -3.18025099       0.00000000
Si       3.65757744       0.90930781      -1.12265222       0.00000000
