10
Lattice="16.2900001489832 0.0 0.0 0.0 16.2900001489832 0.0 0.0 0.0 29.11971093458229" Properties=species:S:1:pos:R:3:initial_magmoms:R:1 pbc="T T T"
Si      -1.01118873      -1.80644699      -1.16622695       0.00000000
Si      -1.41630963       1.30753315       1.40304591       0.00000000
Si       1.30898785       1.42480486      -1.45043533       0.00000000
Si       1.34280589      -1.38390067       1.46712384       0.00000000
Si       2.72258519       2.57825090       0.08305233       0.00000000
Si       2.80395374       0.05812272      -2.56898167       0.00000000
Si       2.65766954      -2.78234832      -0.00030576       0.00000000
Si       0.71938758      -3.62866269      -1.15781135       0.00000000
Si      -0.03583311       2.61817769       2.87261872       0.00000000
Si      -2.61418176      -2.89706250       0.22378789       0.00000000
