10
Lattice="16.2900001489832 0.0 0.0 0.0 16.2900001489832 0.0 0.0 0.0 29.11971093458229" Properties=species:S:1:pos:R:3:initial_magmoms:R:1 pbc="T T T"
H        0.89883985      -0.97645519       0.76771206       0.00000000
Si       1.57984331       1.12728430      -1.25214757       0.00000000
Si      -1.45923541      -1.40911759      -1.21219533       0.00000000
Si      -0.80726725       1.45461556       1.69272880       0.00000000
Si      -0.94498780      -2.62852184       1.94263416       0.00000000
Si      -2.83129325      -1.99655129       0.61559069       0.00000000
Si       0.04442283       2.38795112      -2.60033195       0.00000000
Si       1.49423936      -2.40357323       2.25963133       0.00000000
Si       3.06215187       2.26400051       0.24224688       0.00000000
Si       2.82171147      -0.40452957      -2.55595351       0.00000000
