10
Lattice="16.2900001489832 0.0 0.0 0.0 16.2900001489832 0.0 0.0 0.0 29.11971093458229" Properties=species:S:1:pos:R:3:initial_magmoms:R:1 pbc="T T T"
Si      -0.87234645       0.84618406      -0.93844092       0.00000000
Si       1.20316312      -0.62363008       2.11709034       0.00000000
Si      -1.21311631      -1.07284312       2.21440842       0.00000000
Si       2.60297912       1.10506474       1.00008735       0.00000000
Si       1.72356347      -2.01455174      -1.40977257       0.00000000
Si      -0.50071714      -0.21190032      -2.98450829       0.00000000
Si      -2.94948372       0.86444515       0.02460616       0.00000000
Si      -1.97671007      -2.46655037       0.33685682       0.00000000
Si       0.02746657       3.00172575      -1.08168078       0.00000000
Si      -0.44144271      -2.91411813      -1.36816050       0.00000000
