10
Lattice="16.2900001489832 0.0 0.0 0.0 16.2900001489832 0.0 0.0 0.0 29.11971093458229" Properties=species:S:1:pos:R:3:initial_magmoms:R:1 pbc="T T T"
Si      -1.24186816       1.53181387       1.30380594       0.00000000
Si       1.27899307       1.35969373      -1.47916484       0.00000000
Si      -1.48273210      -1.29673288      -1.37957543       0.00000000
Si       1.34830702      -1.41033934       1.48297952       0.00000000
Si       2.66652641       2.68143176      -0.10701494       0.00000000
Si      -2.82171147       0.40452957       2.55595351       0.00000000
Si       2.57585627      -2.85224871       0.03904953       0.00000000
Si      -0.12937518      -2.68672601      -2.76581926       0.00000000
Si       2.62624124      -0.02450016      -2.82863048       0.00000000
Si       0.24044040       2.66853008       2.79820038       0.00000000
