10
Lattice="16.2900001489832 0.0 0.0 0.0 16.2900001489832 0.0 0.0 0.0 29.11971093458229" Properties=species:S:1:pos:R:3:initial_magmoms:R:1 pbc="T T T"
Si       1.75332530      -1.31634604       0.61969657       0.00000000
Si      -1.53179595      -1.69445324      -0.42724440       0.00000000
Si      -0.38239146       1.61370370       1.66710345       0.00000000
Si       0.80260831       0.96563863      -1.99933023       0.00000000
H        1.24240573       2.32052681      -1.42771031       0.00000000
H        2.97934329      -0.47382723       0.38464226       0.00000000
Si      -1.96622257       2.78036094       0.37043184       0.00000000
Si       1.65343502      -2.78366781      -1.21606825       0.00000000
Si      -0.41746383      -2.59519250      -2.32625723       0.00000000
Si      -2.67046859       1.64985122      -1.63614920       0.00000000
