10
Lattice="16.2900001489832 0.0 0.0 0.0 16.2900001489832 0.0 0.0 0.0 29.11971093458229" Properties=species:S:1:pos:R:3:initial_magmoms:R:1 pbc="T T T"
Si      -0.96446575       1.60552612      -1.36815488       0.00000000
Si       1.14339511       1.45283995       1.42365082       0.00000000
Si      -1.61927488      -1.24336684       1.19989787       0.00000000
Si       1.53003826      -1.18332190      -1.46340545       0.00000000
Si      -1.52234938      -0.08868276      -3.01807770       0.00000000
Si      -0.28730673      -2.08187831      -2.68847169       0.00000000
Si       2.53664624       2.59691924      -0.06781419       0.00000000
Si       0.79125418       3.27251442      -1.45644584       0.00000000
Si       2.49166955      -2.69669549       0.00128689       0.00000000
Si       2.48445308       0.07262082       2.70934429       0.00000000
