10
Lattice="10.86 0.0 0.0 0.0 10.86 0.0 0.0 0.0 10.86" Properties=species:S:1:pos:R:3:initial_magmoms:R:1 pbc="T T T"
Si       1.21611366       1.39155696      -1.31668812       0.00000000
Si       1.21611366      -1.32344304       1.39831188       0.00000000
Si      -1.49888634      -1.32344304      -1.31668812       0.00000000
Si       2.57361366       0.03405696      -2.67418812       0.00000000
Si       2.57361366      -2.68094304       0.04081188       0.00000000
Si       2.57361366       2.74905696       0.04081188       0.00000000
Si       2.57361366       0.03405696       2.75581188       0.00000000
Si      -0.14138634      -2.68094304      -2.67418812       0.00000000
Si      -0.14138634       2.74905696      -2.67418812       0.00000000
Si      -0.14138634      -2.68094304       2.75581188       0.00000000
