10
Lattice="16.28999089631971 0.0 0.0 0.0 16.28999089631971 0.0 0.0 0.0 34.69518985606464" Properties=species:S:1:pos:R:3:initial_magmoms:R:1 pbc="T T T"
Si      -0.79398763      -1.93947274       1.03034849       0.00000000
Si       0.23252346      -0.10262700      -2.32827063       0.00000000
Si       1.88571411       0.98435583       1.09640123       0.00000000
Si      -1.80292996       1.57778424      -0.18514755       0.00000000
Si      -2.06597015      -0.44149158       2.50517938       0.00000000
Si      -1.90799134       0.99957069      -2.51076743       0.00000000
Si       2.04380856       1.43487207      -2.42659685       0.00000000
Si       0.64940085       2.29882851       2.54475967       0.00000000
Si      -0.86181919       3.42666666       1.08546530       0.00000000
Si       2.56565871       2.83032234      -0.39047380       0.00000000
