10
Lattice="16.28999089631971 0.0 0.0 0.0 16.28999089631971 0.0 0.0 0.0 34.69518985606464" Properties=species:S:1:pos:R:3:initial_magmoms:R:1 pbc="T T T"
Si       0.79398763       1.93947274      -1.03034849       0.00000000
Si       1.47015295      -1.20300577       1.47303715       0.00000000
Si      -1.36081188      -1.38957514      -1.44958462       0.00000000
Si      -1.27198251       1.49798116       1.47483089       0.00000000
Si       2.80542796      -2.60078551      -0.01945360       0.00000000
Si       0.10731038      -2.55735637       2.85565512       0.00000000
Si      -1.00894233       3.51725698      -1.21549604       0.00000000
Si      -2.79731295      -2.66628760      -0.05115115       0.00000000
Si      -2.60567739       0.16152675       2.86391258       0.00000000
Si      -2.84302269       2.70769285      -0.02852640       0.00000000
