10
Lattice="16.28999089631971 0.0 0.0 0.0 16.28999089631971 0.0 0.0 0.0 34.69518985606464" Properties=species:S:1:pos:R:3:initial_magmoms:R:1 pbc="T T T"
Si      -0.96817076       1.62566055       1.40040273       0.00000000
Si       0.33071469       1.19878110      -2.01697129       0.00000000
Si       1.69538175      -0.97787241       1.38971661       0.00000000
Si      -1.06278308      -2.14439931      -0.48673909       0.00000000
Si      -1.85569883       2.08038843      -1.80411619       0.00000000
Si      -2.40467183       0.34894809       2.79883620       0.00000000
Si       0.25112664      -0.49888125      -3.69677455       0.00000000
Si       0.45172496      -2.38962897       2.85067778       0.00000000
Si       2.37350187      -2.90424636       0.00919423       0.00000000
Si      -0.98478656      -2.37154707      -2.94791315       0.00000000
