10
Lattice="16.28999089631971 0.0 0.0 0.0 16.28999089631971 0.0 0.0 0.0 34.69518985606464" Properties=species:S:1:pos:R:3:initial_magmoms:R:1 pbc="T T T"
Si       1.09271691      -1.66185367       1.30794000       0.00000000
Si      -1.96227711      -1.26440374      -0.52316906       0.00000000
Si      -0.14581179       1.68101397       1.82018007       0.00000000
Si       0.98987814       0.52189902      -2.29501870       0.00000000
Si       0.97046046      -0.75870675       3.52343728       0.00000000
Si       3.34164915      -1.78114208       0.41151988       0.00000000
Si       1.91112651       1.37935575       3.07219139       0.00000000
Si      -1.35755973      -3.55810157      -0.84413444       0.00000000
Si      -2.52104040      -0.68071023      -2.92147540       0.00000000
Si      -0.21080889       3.82023306       0.92275379       0.00000000
