10
Lattice="16.28999089631971 0.0 0.0 0.0 16.28999089631971 0.0 0.0 0.0 34.69518985606464" Properties=species:S:1:pos:R:3:initial_magmoms:R:1 pbc="T T T"
Si      -0.94066605      -2.13806250       0.45124589       0.00000000
Si       2.05319160      -0.19158669      -1.20322986       0.00000000
Si      -2.05693830       0.30165822      -1.25201132       0.00000000
Si       0.60693282       1.80846693       1.58626497       0.00000000
Si       2.33179947       2.13737832      -1.44335540       0.00000000
Si      -0.81840960      -3.04120942      -1.76425139       0.00000000
Si       3.35829753      -1.63993059       0.18291314       0.00000000
Si      -2.98862856      -1.69240068       1.55576788       0.00000000
Si       0.24118974       3.08428344      -2.25348854       0.00000000
Si      -3.83694660       0.19018575       0.42404485       0.00000000
