10
Lattice="16.28999089631971 0.0 0.0 0.0 16.28999089631971 0.0 0.0 0.0 34.69518985606464" Properties=species:S:1:pos:R:3:initial_magmoms:R:1 pbc="T T T"
Si      -2.11958964       0.69559277       0.82886855       0.00000000
Si      -0.64961262      -1.34619487      -1.87395764       0.00000000
Si       0.83122983       2.14767523      -0.78345252       0.00000000
Si       1.33012737      -1.03350832       1.77299458       0.00000000
Si      -2.91670821       1.54738873      -1.22935535       0.00000000
Si      -1.21375161       3.16725004      -1.49113070       0.00000000
Si      -2.52275085      -0.22981932      -2.80663426       0.00000000
Si       1.34306163       3.42217225       1.20562383       0.00000000
Si      -3.60208227      -1.15087777       0.83362179       0.00000000
Si      -1.50127011      -3.46518178      -1.11506933       0.00000000
