10
Lattice="16.28999089631971 0.0 0.0 0.0 16.28999089631971 0.0 0.0 0.0 34.69518985606464" Properties=species:S:1:pos:R:3:initial_magmoms:R:1 pbc="T T T"
Si       1.33778367       1.35044100      -1.38149037       0.00000000
Si       1.35135324      -1.35790182       1.36258495       0.00000000
Si      -1.36405944       1.35819504       1.36095428       0.00000000
Si      -1.36466217      -1.35944937      -1.39619073       0.00000000
Si       2.70993924      -2.71042957       0.00492672       0.00000000
Si       2.71070487       0.00146610       2.71850843       0.00000000
Si       2.71230129       2.71718829       0.00211641       0.00000000
Si      -2.72000646      -2.71077655      -0.00124903       0.00000000
Si      -0.00451233      -2.71362404       2.71889007       0.00000000
Si      -0.00495216       2.71715571       2.71871660       0.00000000
