10
Lattice="16.28999089631971 0.0 0.0 0.0 16.28999089631971 0.0 0.0 0.0 34.69518985606464" Properties=species:S:1:pos:R:3:initial_magmoms:R:1 pbc="T T T"
Si      -1.17867924       1.45564182       1.48224873       0.00000000
Si       1.71448992       0.93924882      -1.40087601       0.00000000
Si       1.50954543      -1.25915184       1.45296250       0.00000000
Si      -2.01135888      -0.71016255      -1.44695125       0.00000000
Si      -2.69130348      -2.55612906       0.03992378       0.00000000
Si      -1.49941305       1.96977051      -2.76682640       0.00000000
Si       0.60049827       1.17779958      -3.52564532       0.00000000
Si      -2.72710890       2.60524341       0.18484220       0.00000000
Si      -2.54835873       0.10759545       2.83882447       0.00000000
Si       2.74655916       2.67296094      -0.03011891       0.00000000
