10
Lattice="16.28999089631971 0.0 0.0 0.0 16.28999089631971 0.0 0.0 0.0 34.69518985606464" Properties=species:S:1:pos:R:3:initial_magmoms:R:1 pbc="T T T"
Si      -1.10791548       1.57022568       1.39164566       0.00000000
Si       0.94908798       1.77367149      -1.26880797       0.00000000
Si       1.61639154      -1.15484697       1.37848924       0.00000000
Si      -1.55901816      -1.39098681      -1.47966189       0.00000000
Si      -2.44511271       0.22051773       2.76711641       0.00000000
Si       0.27171720      -2.49820182       2.76402854       0.00000000
Si      -2.62498689      -2.71568961       0.11244023       0.00000000
Si      -2.46345525       2.88831474      -0.11798453       0.00000000
Si       2.73742047       2.74752027       0.05272631       0.00000000
Si       2.84868117      -2.64797208      -0.10252087       0.00000000
