10
Lattice="16.28999089631971 0.0 0.0 0.0 16.28999089631971 0.0 0.0 0.0 34.69518985606464" Properties=species:S:1:pos:R:3:initial_magmoms:R:1 pbc="T T T"
Si       0.59219037      -2.15942913       0.54644955       0.00000000
Si       1.32491457       1.76057107       0.74622456       0.00000000
Si      -1.76845869      -0.02077627       1.53120367       0.00000000
Si      -0.93330297       0.64588221      -2.11776088       0.00000000
Si      -1.53417591       2.77599193      -1.26918545       0.00000000
Si      -2.94838574       1.69733329       0.41502409       0.00000000
Si      -1.44956565      -3.16776384      -0.12563135       0.00000000
Si       3.37287708       1.31490925      -0.35829743       0.00000000
Si       0.47659653       3.64315750      -0.38549847       0.00000000
Si       2.17416114      -2.97834372      -1.00067923       0.00000000
