10
Lattice="16.28999089631971 0.0 0.0 0.0 16.28999089631971 0.0 0.0 0.0 34.69518985606464" Properties=species:S:1:pos:R:3:initial_magmoms:R:1 pbc="T T T"
Si       0.64980810      -1.80292833      -1.35745006       0.00000000
Si       0.60158970       1.80452475      -1.37785084       0.00000000
Si      -2.05047117       1.08287775       0.69171839       0.00000000
Si       1.00375722      -0.04331511       2.22229754       0.00000000
Si      -0.93838545      -3.34319670      -0.60456402       0.00000000
Si       3.10366854      -0.83528604       1.46347862       0.00000000
Si      -0.54942912      -1.07430921      -3.35717784       0.00000000
Si       0.05273073       3.61725966       0.06939042       0.00000000
Si      -0.88697421       2.87746560       2.12220186       0.00000000
Si      -2.82254712      -2.05506495      -1.26575062       0.00000000
