10
Lattice="16.28999089631971 0.0 0.0 0.0 16.28999089631971 0.0 0.0 0.0 34.69518985606464" Properties=species:S:1:pos:R:3:initial_magmoms:R:1 pbc="T T T"
Si       0.95462658       1.52954955       1.40005578       0.00000000
Si       1.96002909      -0.93804336      -0.95640814       0.00000000
Si      -1.16820477       1.82923668      -1.08117211       0.00000000
Si      -1.42061832      -1.74935052       0.93069899       0.00000000
Si      -1.34454402      -2.70097974      -1.38107750       0.00000000
Si       0.67605129      -1.95393663      -2.64963843       0.00000000
Si      -0.98642466       2.38734837       2.50076129       0.00000000
Si      -2.28905451       0.53724420      -2.74262160       0.00000000
Si       2.53187325      -2.47239846       0.91473919       0.00000000
Si      -2.57377113       2.68030773       0.77384195       0.00000000
