10
Lattice="16.28999089631971 0.0 0.0 0.0 16.28999089631971 0.0 0.0 0.0 34.69518985606464" Properties=species:S:1:pos:R:3:initial_magmoms:R:1 pbc="T T T"
Si      -1.89477135      -0.25389594      -1.33538391       0.00000000
Si      -0.93028932      -1.00064583       1.90979779       0.00000000
Si       0.45429552       2.33861881       0.32592680       0.00000000
Si       1.78784379      -1.42460937      -0.75101250       0.00000000
Si      -3.47674212       0.56501865       0.21174486       0.00000000
Si       2.62295064       2.44999875      -0.53836556       0.00000000
Si       0.68343066      -0.66443652       3.52933547       0.00000000
Si      -1.66276917      -3.07646424       1.10712413       0.00000000
Si      -2.45193822      -2.52863154      -1.07926387       0.00000000
Si      -1.43672913       0.94700286      -3.33365449       0.00000000
