10
Lattice="16.28999089631971 0.0 0.0 0.0 16.28999089631971 0.0 0.0 0.0 34.69518985606464" Properties=species:S:1:pos:R:3:initial_magmoms:R:1 pbc="T T T"
Si       1.87313823      -1.11637555       0.93267661       0.00000000
Si       0.34096599       1.19153042      -2.04136203       0.00000000
Si      -1.62451699      -1.75289101      -0.17635575       0.00000000
Si      -0.39395736       1.77720805       1.57727891       0.00000000
Si      -1.66616563       2.44607545      -1.68854644       0.00000000
Si      -1.15891947      -2.61872080       1.96045280       0.00000000
Si       3.45250260      -1.12890256      -0.80770447       0.00000000
Si      -3.38151797       1.65211714      -0.12261287       0.00000000
Si       0.40316121       0.92541209       3.63550281       0.00000000
Si       2.52275085       0.22981932       2.80663426       0.00000000
