10
Lattice="16.28999089631971 0.0 0.0 0.0 16.28999089631971 0.0 0.0 0.0 34.69518985606464" Properties=species:S:1:pos:R:3:initial_magmoms:R:1 pbc="T T T"
Si      -0.88167996       1.04892939      -1.92204520       0.00000000
Si      -0.93970494      -0.73979406       2.05281145       0.00000000
Si       0.54885897      -1.81273491      -1.44724126       0.00000000
Si       2.14552332       1.03558788       0.54298002       0.00000000
Si      -2.10320190      -2.53438191       0.62232797       0.00000000
Si      -0.82663605      -0.90684801      -3.28580979       0.00000000
Si       3.19543011       0.37470258      -1.59958793       0.00000000
Si      -0.05273073      -3.61725966      -0.06939042       0.00000000
Si      -3.06208017       1.66557105      -1.65315733       0.00000000
Si       2.83680576      -1.95709689      -1.92055331       0.00000000
