10
Lattice="16.28999089631971 0.0 0.0 0.0 16.28999089631971 0.0 0.0 0.0 34.69518985606464" Properties=species:S:1:pos:R:3:initial_magmoms:R:1 pbc="T T T"
Si       1.69968231       1.08637652       1.25742898       0.00000000
Si      -1.07114895      -1.68037151       1.31580714       0.00000000
Si       1.10467377      -1.41828170      -1.82831232       0.00000000
Si      -1.66977387       1.98345216      -0.09903370       0.00000000
Si      -2.02732308       0.48491388      -2.66592406       0.00000000
Si      -2.19356253      -0.14257922       2.67415580       0.00000000
Si       2.38295007       2.87402646      -0.22324255       0.00000000
Si       0.52719327       2.57137455       2.66986748       0.00000000
Si      -3.54011022       1.04882644       1.13435466       0.00000000
Si      -2.85948144      -2.65422029      -0.00572714       0.00000000
