10
Lattice="16.28999089631971 0.0 0.0 0.0 16.28999089631971 0.0 0.0 0.0 34.69518985606464" Properties=species:S:1:pos:R:3:initial_magmoms:R:1 pbc="T T T"
Si      -1.35586557      -1.35572222       1.35630512       0.00000000
Si       1.35858600      -1.35252775      -1.35765823       0.00000000
Si      -1.35135324       1.35790182      -1.36258495       0.00000000
Si       1.35935163       1.35936792       1.35592347       0.00000000
Si       0.00073305      -2.71261057       2.71365110       0.00000000
Si       2.71508688      -2.71291412       0.00024287       0.00000000
Si      -2.71406061       0.00255753       2.71399805       0.00000000
Si       2.71052568      -0.00229689      -2.71784922       0.00000000
Si      -0.01023012      -2.71625066      -2.71356089       0.00000000
Si       2.71406061       2.71604799      -0.00062451       0.00000000
