10
Lattice="16.28999089631971 0.0 0.0 0.0 16.28999089631971 0.0 0.0 0.0 34.69518985606464" Properties=species:S:1:pos:R:3:initial_magmoms:R:1 pbc="T T T"
Si       1.24473519      -0.01208392      -2.00260748       0.00000000
Si       0.06854832       2.42560218       0.31468555       0.00000000
Si      -2.17984635      -1.12279055      -0.09711189       0.00000000
Si       0.35754921       1.49853828       2.56689036       0.00000000
Si       2.02732308      -0.48491388       2.66592406       0.00000000
Si      -2.49222339      -1.16503052       2.36683778       0.00000000
Si       3.49168005      -0.51607974      -1.20173796       0.00000000
Si       3.13199685      -1.90319558       0.83761174       0.00000000
Si      -3.50997372      -0.08928223      -1.87010647       0.00000000
Si      -2.16691209       3.33289002      -0.66448265       0.00000000
