10
Lattice="16.28999089631971 0.0 0.0 0.0 16.28999089631971 0.0 0.0 0.0 34.69518985606464" Properties=species:S:1:pos:R:3:initial_magmoms:R:1 pbc="T T T"
Si       0.79434927       1.78414596       1.31238098       0.00000000
Si      -0.29444175       1.18659618      -2.11720575       0.00000000
Si      -1.84223610      -1.66651587      -0.01856194       0.00000000
Si       2.67211386      -0.75344508      -0.73043824       0.00000000
Si       1.51650126      -1.94051367       2.00000534       0.00000000
Si      -0.11637576      -3.41389530      -0.72762793       0.00000000
Si       0.52753536      -0.69248790      -3.39856922       0.00000000
Si       1.58749308      -2.33996076      -2.07876346       0.00000000
Si       1.36511829       2.95658613      -2.02998200       0.00000000
Si      -0.67979799       2.27522430       3.09515962       0.00000000
