10
Lattice="16.28999089631971 0.0 0.0 0.0 16.28999089631971 0.0 0.0 0.0 34.69518985606464" Properties=species:S:1:pos:R:3:initial_magmoms:R:1 pbc="T T T"
Si       1.47414726      -0.49107834      -1.78277863       0.00000000
Si       2.09060973      -0.94690512       0.81013314       0.00000000
Si       0.19523565       2.35625076       0.59141454       0.00000000
Si      -2.36312514      -0.64340613       0.10405093       0.00000000
Si      -2.75004522       0.90575658       1.83509901       0.00000000
Si      -2.08754721       2.93614218       0.75396159       0.00000000
Si      -2.29812804      -2.78262522       1.00147721       0.00000000
Si       1.59576840       3.11554395      -1.52194005       0.00000000
Si      -0.24118974      -3.08428344       2.25348854       0.00000000
Si       2.38824432      -0.15446178       3.00516024       0.00000000
