10
Lattice="16.28999089631971 0.0 0.0 0.0 16.28999089631971 0.0 0.0 0.0 34.69518985606464" Properties=species:S:1:pos:R:3:initial_magmoms:R:1 pbc="T T T"
Si      -2.28278286       0.57989142       0.16254706       0.00000000
Si      -0.19523565      -2.35625076      -0.59141454       0.00000000
Si       0.83196288       0.84220929       2.13396354       0.00000000
Si       1.40053275       0.75929319      -2.11335459       0.00000000
Si      -2.94528087      -1.45049418       1.24368447       0.00000000
Si      -2.55195882       1.48234113      -2.09739479       0.00000000
Si       2.94435234      -0.15876234       2.36621327       0.00000000
Si       1.89537408      -3.30315588       0.21871860       0.00000000
Si       3.05722575       2.12884236      -0.98426839       0.00000000
Si       1.27891161      -2.84732910      -2.37419317       0.00000000
