10
Lattice="16.28999089631971 0.0 0.0 0.0 16.28999089631971 0.0 0.0 0.0 34.69518985606464" Properties=species:S:1:pos:R:3:initial_magmoms:R:1 pbc="T T T"
Si       1.51122004      -1.12783815       1.45929438       0.00000000
Si      -0.94111077      -1.84888242      -1.27061285       0.00000000
Si      -1.19758719       1.57398867       1.41953714       0.00000000
Si       1.73507722       1.13176404      -1.31755547       0.00000000
Si      -0.09089983       1.88195112      -2.67302790       0.00000000
Si       2.74753330      -2.44231083       0.01093593       0.00000000
Si       0.86181919      -3.42666666      -1.08546530       0.00000000
Si       0.17901895      -2.49300531       2.80650588       0.00000000
Si       3.42747790      -0.59634432      -1.47593910       0.00000000
Si      -2.53721052       0.21998016       2.80910803       0.00000000
