10
Lattice="16.28999089631971 0.0 0.0 0.0 16.28999089631971 0.0 0.0 0.0 34.69518985606464" Properties=species:S:1:pos:R:3:initial_magmoms:R:1 pbc="T T T"
Si      -0.85395438      -1.02745917       1.92364118       0.00000000
Si       2.33588826       0.39760632      -0.12306391       0.00000000
Si      -1.02853431      -1.20428712      -1.77285580       0.00000000
Si      -0.30366189       2.34981621      -0.30510967       0.00000000
Si       2.03134671       2.73253347      -0.33383730       0.00000000
Si      -1.05704181       2.47112784      -2.53996688       0.00000000
Si      -2.22394338       0.45712998      -2.94232722       0.00000000
Si      -2.05918632      -2.90325267       1.13213937       0.00000000
Si      -2.66841603       0.31353363       2.63412968       0.00000000
Si       1.10566746      -1.99353762       2.99437003       0.00000000
