10
Lattice="16.28999089631971 0.0 0.0 0.0 16.28999089631971 0.0 0.0 0.0 34.69518985606464" Properties=species:S:1:pos:R:3:initial_magmoms:R:1 pbc="T T T"
Si      -1.35404109       1.35993807      -1.35665207       0.00000000
Si      -1.35606105      -1.35796698       1.35686024       0.00000000
Si       1.35904212       1.35746199       1.35686024       0.00000000
Si       1.36249560      -1.35811359      -1.36189105       0.00000000
Si      -0.00993690       2.71098180      -2.71307516       0.00000000
Si      -2.71518462       2.71157564      -0.00072860       0.00000000
Si      -2.71339272      -0.00058644       2.71368579       0.00000000
Si       0.00102627       2.71462189       2.71413683       0.00000000
Si       0.00053757      -2.71544526       2.71347762       0.00000000
Si       2.71538010       2.71431833       0.00072860       0.00000000
