10
Lattice="16.28999089631971 0.0 0.0 0.0 16.28999089631971 0.0 0.0 0.0 34.69518985606464" Properties=species:S:1:pos:R:3:initial_magmoms:R:1 pbc="T T T"
Si       0.97697646       1.72506213       1.39832102       0.00000000
Si       1.49297850      -1.20054042      -1.59188559       0.00000000
Si      -1.22339529       1.51093008      -1.60219007       0.00000000
Si      -1.39895262      -1.69714107       1.46892577       0.00000000
Si      -1.13500575       2.48686398       2.44798988       0.00000000
Si       2.55806757       2.79534771      -0.22055745       0.00000000
Si      -2.68293042      -2.71303434      -0.22430453       0.00000000
Si      -2.95186203       2.54868453      -0.26285091       0.00000000
Si       0.14960736      -2.53550592      -2.98847185       0.00000000
Si      -2.56947057       0.18019998      -2.99263527       0.00000000
