10
Lattice="16.28999089631971 0.0 0.0 0.0 16.28999089631971 0.0 0.0 0.0 34.69518985606464" Properties=species:S:1:pos:R:3:initial_magmoms:R:1 pbc="T T T"
Si       2.29170978      -0.09619245      -0.35149716       0.00000000
Si      -0.26648811       1.02749079       2.06495477       0.00000000
Si      -1.21430547       1.59441374      -1.20159918       0.00000000
Si      -0.71759079      -2.23788762      -0.39597642       0.00000000
Si      -2.38511664      -1.33330392      -1.83103967       0.00000000
Si      -1.11576726       0.38310822      -3.20843947       0.00000000
Si      -1.10159496      -2.84711733       1.85230783       0.00000000
Si       0.71346942       3.11498099       1.64198547       0.00000000
Si       2.88409563      -1.60096491       1.58588332       0.00000000
Si       2.67985161      -0.75978189      -2.60241826       0.00000000
