10
Lattice="16.28999089631971 0.0 0.0 0.0 16.28999089631971 0.0 0.0 0.0 34.69518985606464" Properties=species:S:1:pos:R:3:initial_magmoms:R:1 pbc="T T T"
Si      -0.32135283       2.13029217       0.90387959       0.00000000
Si      -2.05291467      -0.61082613      -1.11291823       0.00000000
Si       0.23152977      -1.38018654       1.97086136       0.00000000
Si       1.93277592       0.63532629      -1.37934274       0.00000000
Si      -1.21780782       3.26378199      -0.90027129       0.00000000
Si       2.88520335      -1.52743185      -1.71175754       0.00000000
Si      -1.66891050      -0.00159642      -3.36120248       0.00000000
Si       0.97184511      -3.45431079       1.16957550       0.00000000
Si       1.76256171       2.92472289       1.65287977       0.00000000
Si      -0.95131971       2.23629120      -2.96522606       0.00000000
