10
Lattice="16.28999089631971 0.0 0.0 0.0 16.28999089631971 0.0 0.0 0.0 34.69518985606464" Properties=species:S:1:pos:R:3:initial_magmoms:R:1 pbc="T T T"
Si      -0.89645499       1.13348982      -1.80415088       0.00000000
Si       0.32135283      -2.13029217      -0.90387959       0.00000000
Si       2.08391454       0.79443072       0.74900018       0.00000000
Si      -1.58514732      -0.05807385       1.74156072       0.00000000
Si      -3.06511011       1.02210988      -0.93985852       0.00000000
Si       1.98159705      -0.39376188       2.77700455       0.00000000
Si       2.25412875      -1.49496588      -2.28322233       0.00000000
Si      -0.18345798       0.29061360       3.54328294       0.00000000
Si      -2.87360487       1.84236546       1.23605152       0.00000000
Si       3.60535167      -0.07477110      -0.85561856       0.00000000
