10
Lattice="16.28999089631971 0.0 0.0 0.0 16.28999089631971 0.0 0.0 0.0 34.69518985606464" Properties=species:S:1:pos:R:3:initial_magmoms:R:1 pbc="T T T"
Si       1.40168934       0.34868745       1.80172222       0.00000000
Si      -1.28845755       1.90043931      -0.50550920       0.00000000
Si      -1.25082765      -1.92287160       0.52198942       0.00000000
Si       1.58514732       0.05807385      -1.74156072       0.00000000
Si      -1.47996279       1.08018373      -2.68141925       0.00000000
Si       1.30618107       2.70603683       1.62519299       0.00000000
Si      -0.20955456      -0.24215085       3.45984096       0.00000000
Si      -2.23091550      -1.08442530       2.47373372       0.00000000
Si       0.29128149       3.69104426      -0.35822804       0.00000000
Si       3.56674437      -0.33568803       1.03544382       0.00000000
