10
Lattice="16.28999089631971 0.0 0.0 0.0 16.28999089631971 0.0 0.0 0.0 34.69518985606464" Properties=species:S:1:pos:R:3:initial_magmoms:R:1 pbc="T T T"
Si       1.00054809      -1.46005641      -1.56003539       0.00000000
Si      -2.33820144      -0.28569402      -0.19516055       0.00000000
Si      -0.17213643       2.12447664      -1.02524343       0.00000000
Si       1.20938589      -0.14118543       2.05086851       0.00000000
Si      -2.19349737       1.28220219      -2.01135067       0.00000000
Si       0.55544013      -2.26504305       2.94277826       0.00000000
Si      -2.69682579      -2.61749349      -0.51612593       0.00000000
Si       3.33555669      -1.07733915      -1.58876302       0.00000000
Si      -3.38810823       0.37519128       1.94740740       0.00000000
Si      -0.15933249       3.93091288       0.46495050       0.00000000
