10
Lattice="16.28999089631971 0.0 0.0 0.0 16.28999089631971 0.0 0.0 0.0 34.69518985606464" Properties=species:S:1:pos:R:3:initial_magmoms:R:1 pbc="T T T"
Si       1.35498591       1.35472783       1.35672146       0.00000000
Si       1.35760860      -1.35718154      -1.35758884       0.00000000
Si      -1.35812988       1.35859834      -1.35731128       0.00000000
Si      -1.36028016      -1.35928295       1.35727659       0.00000000
Si       2.71220839      -0.00068998      -2.71521238       0.00000000
Si       2.71414772      -2.71449692      -0.00062451       0.00000000
Si      -0.00066789       2.71377810      -2.71517769       0.00000000
Si      -2.71474479      -2.71475756       0.00041634       0.00000000
Si      -2.71627605       0.00006576      -2.71344292       0.00000000
Si       2.71402541       2.71578177       0.00045104       0.00000000
