10
Lattice="16.28999089631971 0.0 0.0 0.0 16.28999089631971 0.0 0.0 0.0 34.69518985606464" Properties=species:S:1:pos:R:3:initial_magmoms:R:1 pbc="T T T"
Si       0.84778047       1.15310394       1.81580847       0.00000000
Si      -2.06710326       0.89096526      -0.71510296       0.00000000
Si      -0.34324659      -2.34389384       0.37838595       0.00000000
Si       1.71535233       0.79395831      -1.56593357       0.00000000
Si      -1.63852965       0.34754715      -2.99409247       0.00000000
Si       2.98756061       0.12509091       1.69989178       0.00000000
Si       1.25867358       3.30269976       0.84205273       0.00000000
Si       0.48707100       1.20298392      -3.51184908       0.00000000
Si       3.38151797      -1.65211714       0.12261287       0.00000000
Si       1.75700097      -3.40500815      -0.05374288       0.00000000
