10
Lattice="16.28999089631971 0.0 0.0 0.0 16.28999089631971 0.0 0.0 0.0 34.69518985606464" Properties=species:S:1:pos:R:3:initial_magmoms:R:1 pbc="T T T"
Si      -1.35083196       1.34892603       1.35377237       0.00000000
Si      -1.35534429      -1.35679410      -1.35616634       0.00000000
Si       1.35928647       1.35580041      -1.35668677       0.00000000
Si       1.36098063      -1.35423657       1.35831744       0.00000000
Si      -0.02350647      -2.71394495       2.70844681       0.00000000
Si      -2.71285515      -0.00047241      -2.71368579       0.00000000
Si      -2.71500543       2.71217097       0.00183885       0.00000000
Si       0.00102627      -2.71422188      -2.71323475       0.00000000
Si       0.00089595       2.71497285      -2.71389396       0.00000000
Si       2.71539639       2.71394658       0.00215110       0.00000000
