10
Lattice="16.28999089631971 0.0 0.0 0.0 16.28999089631971 0.0 0.0 0.0 34.69518985606464" Properties=species:S:1:pos:R:3:initial_magmoms:R:1 pbc="T T T"
Si       2.02447233      -0.60041682      -1.06656543       0.00000000
Si      -0.40203720       2.06348688      -1.45681714       0.00000000
Si      -0.77582754       0.20874006       2.53510955       0.00000000
Si      -0.00879660      -1.02871350      -2.69512385       0.00000000
Si       1.06347636       2.67113646       0.52306497       0.00000000
Si      -1.72403586      -2.21135121      -1.40925001       0.00000000
Si      -2.56691304       2.12879349      -0.45055199       0.00000000
Si       3.05152818       1.43858619      -0.39882143       0.00000000
Si      -0.63027639      -3.41922213       0.38900269       0.00000000
Si       0.51934149       2.12604048       2.77114106       0.00000000
