10
Lattice="16.28999089631971 0.0 0.0 0.0 16.28999089631971 0.0 0.0 0.0 34.69518985606464" Properties=species:S:1:pos:R:3:initial_magmoms:R:1 pbc="T T T"
Si      -2.22412257      -0.73559124      -0.17430873       0.00000000
Si       0.07750782       2.34846414      -0.24293586       0.00000000
Si       1.60112522      -0.86501529      -1.55483111       0.00000000
Si       0.09764226      -0.27173349       2.40892307       0.00000000
Si      -1.66283433       1.23105159       2.72593320       0.00000000
Si       2.67534647      -2.25937413       0.08555839       0.00000000
Si      -0.35372106       3.03767775       1.94067653       0.00000000
Si      -1.93044645       2.81061144      -1.35349481       0.00000000
Si      -3.22561548       0.89331102      -1.58952632       0.00000000
Si       2.28950153       2.77715178      -0.93486241       0.00000000
