10
Lattice="16.28999089631971 0.0 0.0 0.0 16.28999089631971 0.0 0.0 0.0 34.69518985606464" Properties=species:S:1:pos:R:3:initial_magmoms:R:1 pbc="T T T"
Si       1.70111583       1.33175637       0.91054107       0.00000000
Si      -1.77354117       1.44813213      -0.51851990       0.00000000
Si       1.13982759      -0.63488646      -1.98970086       0.00000000
Si      -0.70599231      -2.11963851       0.96029400       0.00000000
Si      -1.04467770      -3.12162012      -1.08727847       0.00000000
Si      -2.07117576       0.65568879      -2.71354701       0.00000000
Si       3.46159242      -0.17102871       0.59353094       0.00000000
Si       0.51741927       2.31322887       2.63603791       0.00000000
Si       0.13833468       0.99401580      -3.40491844       0.00000000
Si      -1.23895224       0.80242911       3.37081305       0.00000000
