10
Lattice="16.28999089631971 0.0 0.0 0.0 16.28999089631971 0.0 0.0 0.0 34.69518985606464" Properties=species:S:1:pos:R:3:initial_magmoms:R:1 pbc="T T T"
Si      -1.53339399       0.93864609       1.47530969       0.00000000
Si       1.33221562       1.37174832      -1.37028729       0.00000000
Si      -1.37080350      -1.35527913      -1.36647082       0.00000000
Si       1.83559697      -0.91471608       1.37563035       0.00000000
Si      -1.98430119      -1.20008430       2.61206352       0.00000000
Si      -0.13665681       2.40735249       2.62788454       0.00000000
Si       2.69007263       2.70658350       0.00513489       0.00000000
Si       2.70590814      -2.70036072       0.01620266       0.00000000
Si       2.69535384       0.00342090      -2.72510051       0.00000000
Si      -0.01964574      -2.71060713      -2.72683528       0.00000000
