10
Lattice="16.28999089631971 0.0 0.0 0.0 16.28999089631971 0.0 0.0 0.0 34.69518985606464" Properties=species:S:1:pos:R:3:initial_magmoms:R:1 pbc="T T T"
Si       1.53339399      -0.93864609      -1.47530969       0.00000000
Si       1.39673718       1.46870640       1.15257485       0.00000000
Si      -0.45090720      -2.13873039       1.13675384       0.00000000
Si      -1.20896235       1.76160060      -1.44397991       0.00000000
Si       1.01460636      -1.53108081       3.11663595       0.00000000
Si       0.16259049      -2.29392522      -2.84178050       0.00000000
Si      -0.23574888       1.97941419       3.09314729       0.00000000
Si      -2.55233349       0.42663510      -2.84056617       0.00000000
Si       3.36899096      -1.85336217      -0.09967934       0.00000000
Si      -2.61578304      -2.07342378       2.14301899       0.00000000
