10
Lattice="16.28999089631971 0.0 0.0 0.0 16.28999089631971 0.0 0.0 0.0 34.69518985606464" Properties=species:S:1:pos:R:3:initial_magmoms:R:1 pbc="T T T"
Si      -0.54413487      -0.54509598       2.24807608       0.00000000
Si       1.98805182      -1.23255027      -0.92188640       0.00000000
Si      -1.46551356      -0.60764958      -1.97988212       0.00000000
Si       0.80857044       2.52120330       0.33168620       0.00000000
Si      -1.06347636      -2.67113646      -0.52306497       0.00000000
Si       0.38213082       2.99978721      -1.96406110       0.00000000
Si      -1.01460636       1.53108081      -3.11663595       0.00000000
Si      -1.83930390      -2.46239640       2.01204457       0.00000000
Si      -1.25035524       3.51049500      -0.02348866       0.00000000
Si      -1.62245142       1.32467022       3.09321669       0.00000000
