10
Lattice="16.28999089631971 0.0 0.0 0.0 16.28999089631971 0.0 0.0 0.0 34.69518985606464" Properties=species:S:1:pos:R:3:initial_magmoms:R:1 pbc="T T T"
Si       1.07831655      -1.86976620      -0.84514060       0.00000000
Si      -1.26451125       1.30660461      -1.59278767       0.00000000
Si      -1.37738466      -0.98100009       1.75769400       0.00000000
Si       1.72318878       1.50858432       0.84795091       0.00000000
Si       1.93150530       0.50767785       3.02285480       0.00000000
Si       1.62245142      -1.32467022      -3.09321669       0.00000000
Si      -0.19016946      -0.41829462       3.72928396       0.00000000
Si      -3.48977412       0.01997154       1.52544426       0.00000000
Si       0.37209618       2.18582478      -3.11670534       0.00000000
Si       2.43102186       1.19653308      -2.76153048       0.00000000
