10
Lattice="16.28999089631971 0.0 0.0 0.0 16.28999089631971 0.0 0.0 0.0 34.69518985606464" Properties=species:S:1:pos:R:3:initial_magmoms:R:1 pbc="T T T"
Si      -1.29018429       0.70377687      -1.81622481       0.00000000
Si      -0.36764901      -2.32200918       0.24040310       0.00000000
Si       2.20158440       0.87154758      -0.31014048       0.00000000
Si      -0.50000526       1.20625821       2.01728355       0.00000000
Si      -2.52040509      -1.68736707       1.30120913       0.00000000
Si       1.65480980      -2.45659716       1.55281878       0.00000000
Si      -0.34572267      -2.68569972      -2.11536691       0.00000000
Si      -0.21610314      -0.65125791      -3.37594795       0.00000000
Si       1.52808345       3.24855180       0.06189625       0.00000000
Si      -2.46378105       0.18301815       2.66434920       0.00000000
