10
Lattice="16.28999089631971 0.0 0.0 0.0 16.28999089631971 0.0 0.0 0.0 34.69518985606464" Properties=species:S:1:pos:R:3:initial_magmoms:R:1 pbc="T T T"
Si       0.58093398       0.75512295      -2.14929882       0.00000000
Si       0.30454155      -2.33492715       0.21077340       0.00000000
Si      -2.33500860      -0.38271726       0.02872763       0.00000000
Si       0.90072297       1.06357410       1.92929650       0.00000000
Si      -2.03134671      -2.73253347       0.33383730       0.00000000
Si       0.26860581       3.10827861      -1.86087755       0.00000000
Si      -1.16010864      -0.00843822      -3.57090033       0.00000000
Si       3.12280929       0.20984778       2.08889446       0.00000000
Si      -3.08838852      -0.26140563      -2.20612958       0.00000000
Si      -3.33555669       1.07733915       1.58876302       0.00000000
