10
Lattice="16.28999089631971 0.0 0.0 0.0 16.28999089631971 0.0 0.0 0.0 34.69518985606464" Properties=species:S:1:pos:R:3:initial_magmoms:R:1 pbc="T T T"
Si      -1.96377579      -1.02324006       0.64706565       0.00000000
Si      -0.69910164       2.26753542       0.12618648       0.00000000
Si       0.50000526      -1.20625821      -2.01728355       0.00000000
Si       1.95009219       2.26944135       0.50578676       0.00000000
Si       2.23435352       0.51160374       2.31680729       0.00000000
Si      -1.24672257      -1.37930688       2.83811430       0.00000000
Si       2.02808871       2.04229359      -1.95538730       0.00000000
Si       2.70158966      -0.33471063      -2.32742403       0.00000000
Si      -0.19399761       2.89601991      -2.11498526       0.00000000
Si      -2.02039983      -2.89362528      -0.71607442       0.00000000
