10
Lattice="16.28999089631971 0.0 0.0 0.0 16.28999089631971 0.0 0.0 0.0 34.69518985606464" Properties=species:S:1:pos:R:3:initial_magmoms:R:1 pbc="T T T"
Si       1.35884664      -1.35436689      -1.35502140       0.00000000
Si      -1.35715248      -1.35474156       1.35762354       0.00000000
Si       1.35795069       1.35987291       1.35762354       0.00000000
Si      -1.35931905       1.36454814      -1.36112775       0.00000000
Si       0.00024435      -2.68742646      -2.72204734       0.00000000
Si       2.71271833      -2.71324611       0.00117964       0.00000000
Si       0.00107514      -2.71169856       2.71510829       0.00000000
Si       2.71255048       2.71636447       0.00000000       0.00000000
Si       2.71448981       0.00255753       2.71458787       0.00000000
Si      -2.71440270       0.00229689       2.71562872       0.00000000
