10
Lattice="16.28999089631971 0.0 0.0 0.0 16.28999089631971 0.0 0.0 0.0 34.69518985606464" Properties=species:S:1:pos:R:3:initial_magmoms:R:1 pbc="T T T"
Si      -1.35446463      -1.35547461      -1.35686024       0.00000000
Si       1.36028016       1.35928295      -1.35727659       0.00000000
Si      -1.35410625       1.36430042       1.35925421       0.00000000
Si       1.36432008      -1.35739683       1.36234209       0.00000000
Si      -0.02238246       2.71815822       2.70709370       0.00000000
Si      -2.71233387       0.00249237      -2.71458787       0.00000000
Si       0.00278559      -2.71251306      -2.71486543       0.00000000
Si      -2.71269225       2.71556322      -0.00034695       0.00000000
Si       2.71526607       2.71401078      -0.00055512       0.00000000
Si       0.00215028       2.71788129      -2.71458787       0.00000000
