10
Lattice="16.28999089631971 0.0 0.0 0.0 16.28999089631971 0.0 0.0 0.0 34.69518985606464" Properties=species:S:1:pos:R:3:initial_magmoms:R:1 pbc="T T T"
Si      -1.08128133       1.45535742      -1.42319748       0.00000000
Si       1.27656585       1.54774126       1.31019519       0.00000000
Si       1.64476872      -1.26096003      -1.38676751       0.00000000
Si      -1.58109111      -1.07028558       1.61887846       0.00000000
Si       2.09056086      -0.28468404       2.51685987       0.00000000
Si       0.10254555      -1.45137384       3.27456854       0.00000000
Si      -2.41300512       0.10149962      -2.77103697       0.00000000
Si      -2.71365336       2.53241801      -0.09135249       0.00000000
Si      -2.55806757      -2.79534771       0.22055745       0.00000000
Si       0.30542121      -2.62019763      -2.76794910       0.00000000
