10
Lattice="16.28999089631971 0.0 0.0 0.0 16.28999089631971 0.0 0.0 0.0 34.69518985606464" Properties=species:S:1:pos:R:3:initial_magmoms:R:1 pbc="T T T"
Si       0.95242743      -2.16275814      -0.33241480       0.00000000
Si       1.35122292       1.42019478       1.42760377       0.00000000
Si      -1.93277592      -0.63532629       1.37934274       0.00000000
Si      -0.59238585       1.50477246      -1.93738048       0.00000000
Si      -2.25412875       1.49496588       2.28322233       0.00000000
Si      -2.88409563       1.60096491      -1.58588332       0.00000000
Si       1.87747137       3.29848947       0.07140274       0.00000000
Si      -0.17021421       2.28939660       3.03222251       0.00000000
Si       1.16074395      -3.16366461       1.84248909       0.00000000
Si       2.81337473      -1.86430905      -1.87586588       0.00000000
