10
Lattice="16.28999089631971 0.0 0.0 0.0 16.28999089631971 0.0 0.0 0.0 34.69518985606464" Properties=species:S:1:pos:R:3:initial_magmoms:R:1 pbc="T T T"
Si       1.48502898       1.16510220       1.44144716       0.00000000
Si       0.13385493      -2.43310698       0.13805224       0.00000000
Si       1.02600936       0.51277662      -2.15589091       0.00000000
Si      -2.01481236       1.00757513       1.06333877       0.00000000
Si      -0.49826223      -0.38840247      -3.65212181       0.00000000
Si       1.02980493       3.50370926       1.30509499       0.00000000
Si       3.67144250       0.28349487       1.22859205       0.00000000
Si       3.59185445      -1.41416748      -0.45121120       0.00000000
Si      -0.37124910      -3.06159147       2.37922397       0.00000000
Si      -2.37449556      -0.37954071       3.10268848       0.00000000
