10
Lattice="16.28999089631971 0.0 0.0 0.0 16.28999089631971 0.0 0.0 0.0 34.69518985606464" Properties=species:S:1:pos:R:3:initial_magmoms:R:1 pbc="T T T"
Si      -2.15036797      -0.33712155      -0.83806278       0.00000000
Si       1.79554896      -0.41127363      -1.48450392       0.00000000
Si       0.06054993      -1.57320675       1.77386196       0.00000000
Si       0.05255154       2.34385407       0.64540028       0.00000000
Si       1.25178876       1.61523495       2.64512806       0.00000000
Si      -0.33640479       0.07496658       3.39801410       0.00000000
Si      -3.37129369      -0.01545921       1.17779827       0.00000000
Si       1.71854613       1.55292570      -2.79032751       0.00000000
Si       1.28410812      -2.71275741      -2.07168564       0.00000000
Si      -2.04282302       0.83983095      -2.93538818       0.00000000
