10
Lattice="16.28999089631971 0.0 0.0 0.0 16.28999089631971 0.0 0.0 0.0 34.69518985606464" Properties=species:S:1:pos:R:3:initial_magmoms:R:1 pbc="T T T"
Si      -0.13669763       2.25901575      -0.76586205       0.00000000
Si       0.10506138       0.57821355       2.32561988       0.00000000
Si       2.14051480      -1.10219769       0.18249680       0.00000000
Si      -1.58956030      -1.53528363      -1.24933979       0.00000000
Si       1.90799134      -0.99957069       2.51076743       0.00000000
Si      -0.40232881      -1.02921849      -3.27290317       0.00000000
Si      -2.15915644       2.39360373      -2.07827773       0.00000000
Si       1.15929153       2.49893487      -2.68762969       0.00000000
Si       3.04345321       1.21080312      -2.02644309       0.00000000
Si      -1.72901899      -0.23135058       3.51258952       0.00000000
