10
Lattice="16.28999089631971 0.0 0.0 0.0 16.28999089631971 0.0 0.0 0.0 34.69518985606464" Properties=species:S:1:pos:R:3:initial_magmoms:R:1 pbc="T T T"
Si       1.34480140       1.34794863      -1.36586712       0.00000000
Si       1.35540619      -1.36014984       1.36008690       0.00000000
Si      -1.36173062       1.35462753       1.36071141       0.00000000
Si      -1.37501787      -1.36441782      -1.38745448       0.00000000
Si       2.53429720      -0.21934485      -2.65113727       0.00000000
Si      -2.71560231       2.71350675       0.00451038       0.00000000
Si      -0.00182611       2.71261080       2.71725940       0.00000000
Si       2.71304737      -2.71699281       0.00284501       0.00000000
Si       2.71332430      -0.00244350       2.71760635       0.00000000
Si       2.71417138       2.71686249       0.00353891       0.00000000
