10
Lattice="16.28999089631971 0.0 0.0 0.0 16.28999089631971 0.0 0.0 0.0 34.69518985606464" Properties=species:S:1:pos:R:3:initial_magmoms:R:1 pbc="T T T"
Si      -1.35655952      -1.35721764       1.35717250       0.00000000
Si       1.35764118      -1.35684297      -1.35724189       0.00000000
Si       1.35791811       1.35770634       1.35751945       0.00000000
Si      -1.35540619       1.36014984      -1.36008690       0.00000000
Si      -0.02161683      -2.70609480      -2.70778414       0.00000000
Si       2.71344159       2.71412577       0.00038165       0.00000000
Si       2.71578735       0.00021177       2.71326945       0.00000000
Si       0.00171045      -2.71428867       2.71479604       0.00000000
Si       2.71370223      -2.71583622      -0.00065921       0.00000000
Si      -2.71472997       0.00074934       2.71490012       0.00000000
