10
Lattice="16.28999089631971 0.0 0.0 0.0 16.28999089631971 0.0 0.0 0.0 34.69518985606464" Properties=species:S:1:pos:R:3:initial_magmoms:R:1 pbc="T T T"
Si       1.36487552       1.32345354       1.36327886       0.00000000
Si       1.35097038      -1.36124175      -1.35956647       0.00000000
Si      -1.36205160       1.35342063      -1.35932360       0.00000000
Si      -1.37365008      -1.35874938       1.38475519       0.00000000
Si      -0.13049502       2.52371866       2.67822729       0.00000000
Si       2.71068364      -2.71114518       0.00017348       0.00000000
Si       2.71242667      -0.00083508      -2.71583689       0.00000000
Si       2.71511452       2.71388812       0.00353891       0.00000000
Si      -0.00301211       2.71447456      -2.71559403       0.00000000
Si      -2.71299759      -2.71798698       0.00357361       0.00000000
