10
Lattice="16.28999089631971 0.0 0.0 0.0 16.28999089631971 0.0 0.0 0.0 34.69518985606464" Properties=species:S:1:pos:R:3:initial_magmoms:R:1 pbc="T T T"
Si      -0.73811619       2.31586785       0.08392771       0.00000000
Si       0.34127550      -0.14968881      -2.45239617       0.00000000
Si       2.40013602      -0.72040896      -0.18208046       0.00000000
Si      -1.46761497      -0.92968659       1.83509901       0.00000000
Si       2.66931198      -1.62285867       2.07786139       0.00000000
Si      -2.12389509       2.49025230       2.06793856       0.00000000
Si       2.47621032      -1.67203818      -2.49385695       0.00000000
Si      -3.43202297       0.42652107       1.82833344       0.00000000
Si       1.24698321       3.70924929      -0.33893750       0.00000000
Si      -0.57695922      -0.23408730       3.91466046       0.00000000
