10
Lattice="16.28999089631971 0.0 0.0 0.0 16.28999089631971 0.0 0.0 0.0 34.69518985606464" Properties=species:S:1:pos:R:3:initial_magmoms:R:1 pbc="T T T"
Si       0.88321122       1.91149208       1.21211183       0.00000000
Si       1.32815628      -1.36344042      -1.52447280       0.00000000
Si      -1.36918427       1.32948133      -1.53852436       0.00000000
Si      -1.55650950      -1.45290510       1.58772217       0.00000000
Si      -2.86455482       2.52974645      -0.22357593       0.00000000
Si       2.33140851      -3.10896279      -0.22701075       0.00000000
Si       2.77074981       2.75148593      -0.11969847       0.00000000
Si      -1.20862189       3.52278485       1.22102850       0.00000000
Si      -2.77494353      -2.78023059      -0.04860799       0.00000000
Si       2.69303022       0.00946760      -2.90256651       0.00000000
