10
Lattice="10.86 0.0 0.0 0.0 10.86 0.0 0.0 0.0 10.86" Properties=species:S:1:pos:R:3:initial_magmoms:R:1 pbc="T T T"
Si       1.33301070       1.23055746      -1.30266786       0.00000000
Si      -1.38198930       1.23055746       1.41233214       0.00000000
Si      -1.38198930      -1.48444254      -1.30266786       0.00000000
Si      -0.02448930       2.58805746      -2.66016786       0.00000000
Si       2.69051070       2.58805746       0.05483214       0.00000000
Si      -2.73948930       2.58805746       0.05483214       0.00000000
Si       2.69051070      -0.12694254      -2.66016786       0.00000000
Si      -0.02448930       2.58805746       2.76983214       0.00000000
Si      -2.73948930      -0.12694254      -2.66016786       0.00000000
Si       2.70768036      -0.04194132       2.78613300       0.00000000
