10
Lattice="16.28999089631971 0.0 0.0 0.0 16.28999089631971 0.0 0.0 0.0 34.36671206372826" Properties=species:S:1:pos:R:3:initial_magmoms:R:1 pbc="T T T"
Si      -1.40178708       1.35143469      -1.22628058       0.00000000
Si       1.31732343       1.36627488       1.36185390       0.00000000
Si      -1.39088907      -1.35719483       1.35333095       0.00000000
Si       1.87813926      -0.76346343      -1.37316742       0.00000000
Si      -2.09968326      -0.47368062      -2.43324705       0.00000000
Si       2.66841603      -2.67144173       0.00308957       0.00000000
Si       2.68014483       0.00216657       2.71305067       0.00000000
Si       2.67748956       2.71984356      -0.01658538       0.00000000
Si       0.88585020      -1.08918035      -3.57026834       0.00000000
Si      -0.03518640      -2.71126025       2.71487211       0.00000000
