10
Lattice="16.28999089631971 0.0 0.0 0.0 16.28999089631971 0.0 0.0 0.0 34.36671206372826" Properties=species:S:1:pos:R:3:initial_magmoms:R:1 pbc="T T T"
Si       2.31489045       0.01790597      -0.44034093       0.00000000
Si       0.44703018      -1.96747266       1.24397257       0.00000000
Si      -1.39548285       0.97347737      -1.69266462       0.00000000
Si      -1.08097182       1.16146886       1.86807241       0.00000000
Si       1.57595976      -1.91834202      -1.83143748       0.00000000
Si      -1.90229733      -2.33142384       1.75631180       0.00000000
Si       0.87259014       1.53822397       3.28789955       0.00000000
Si       0.07887618       2.30224127      -2.97883953       0.00000000
Si      -2.95811739      -0.22601235       2.32542487       0.00000000
Si       3.44856042      -0.34187595       1.58475308       0.00000000
