10
Lattice="16.28999089631971 0.0 0.0 0.0 16.28999089631971 0.0 0.0 0.0 34.36671206372826" Properties=species:S:1:pos:R:3:initial_magmoms:R:1 pbc="T T T"
Si       1.63372410      -1.52622706       0.88865494       0.00000000
Si      -0.56840697      -1.99104592      -1.30298025       0.00000000
Si       1.51422066       1.08013126      -1.71067278       0.00000000
Si      -1.04414013       0.61112749       2.23424993       0.00000000
Si      -2.57958666       1.30139833      -0.56821953       0.00000000
Si      -0.13336623       1.76049940      -3.23373758       0.00000000
Si      -1.66763988      -1.67624167       2.84669945       0.00000000
Si       1.76614551       3.18212770      -0.71118514       0.00000000
Si      -1.53805293       2.99977744      -1.74249638       0.00000000
Si      -1.72750563       3.04092598       1.66173456       0.00000000
