10
Lattice="16.28999089631971 0.0 0.0 0.0 16.28999089631971 0.0 0.0 0.0 34.36671206372826" Properties=species:S:1:pos:R:3:initial_magmoms:R:1 pbc="T T T"
Si       1.41302718       1.01107143      -1.57578336       0.00000000
Si      -0.68404968       1.65074715       1.55810997       0.00000000
Si      -2.22684300      -1.03822686      -0.49659927       0.00000000
Si       0.68336550      -2.42979848       0.57251538       0.00000000
Si      -0.85208103      -1.73952765      -2.22995409       0.00000000
Si      -1.60427178       0.01081656       2.91650313       0.00000000
Si      -2.30216796      -1.81429875       1.70953666       0.00000000
Si       0.18945270      -0.04114854      -3.40423093       0.00000000
Si       1.67565456      -2.10408156       2.76961629       0.00000000
Si       1.72750563      -3.04092598      -1.66173456       0.00000000
