10
Lattice="16.28999089631971 0.0 0.0 0.0 16.28999089631971 0.0 0.0 0.0 34.36671206372826" Properties=species:S:1:pos:R:3:initial_magmoms:R:1 pbc="T T T"
Si       1.35213516       1.34915409      -1.36752784       0.00000000
Si       1.35239580      -1.36143675       1.35971972       0.00000000
Si      -1.36259334       1.35641943       1.35855125       0.00000000
Si      -1.38785913      -1.36798533      -1.34281473       0.00000000
Si      -0.01386279      -2.72619666      -2.58318567       0.00000000
Si      -0.10236636       2.45679264      -2.90632573       0.00000000
Si       2.70524772      -2.71135647       0.00494881       0.00000000
Si       2.70793557       2.71588509       0.00185580       0.00000000
Si       2.70938538      -0.00182448       2.71665574       0.00000000
Si      -0.00423540       2.71303434       2.71583094       0.00000000
