10
Lattice="16.28999089631971 0.0 0.0 0.0 16.28999089631971 0.0 0.0 0.0 34.36671206372826" Properties=species:S:1:pos:R:3:initial_magmoms:R:1 pbc="T T T"
Si      -1.35425286       1.33066494       1.43908969       0.00000000
Si       0.73648719       1.71751986      -1.49226331       0.00000000
Si      -1.80002871      -1.10475522      -1.13496130       0.00000000
Si       1.35902583      -1.37627694       1.43312706       0.00000000
Si       2.47956606       2.54800035       0.01647885       0.00000000
Si      -2.80875438       2.43830349      -0.09970820       0.00000000
Si      -1.00918179       3.50129115      -1.28107975       0.00000000
Si      -2.72025081      -2.74468581       0.22343187       0.00000000
Si       2.41228836      -3.04005609       0.11908416       0.00000000
Si       0.00154755       2.69739594       2.80847334       0.00000000
