10
Lattice="16.28999089631971 0.0 0.0 0.0 16.28999089631971 0.0 0.0 0.0 34.36671206372826" Properties=species:S:1:pos:R:3:initial_magmoms:R:1 pbc="T T T"
Si      -1.35632169      -1.35694071      -1.35731405       0.00000000
Si       1.35907470      -1.35542574       1.35738278       0.00000000
Si      -1.35553977       1.35899325       1.35817322       0.00000000
Si       1.35788553       1.35842310      -1.35769209       0.00000000
Si      -0.01200573      -2.71048170       2.70497105       0.00000000
Si       2.71508688      -2.71332756      -0.00054987       0.00000000
Si      -2.71430496       0.00164529      -2.71459374       0.00000000
Si       0.00063531      -2.71412088      -2.71507487       0.00000000
Si      -0.00071676       2.71609686      -2.71390640       0.00000000
Si      -2.71541268      -2.71496633      -0.00044677       0.00000000
