10
Lattice="16.28999089631971 0.0 0.0 0.0 16.28999089631971 0.0 0.0 0.0 34.36671206372826" Properties=species:S:1:pos:R:3:initial_magmoms:R:1 pbc="T T T"
Si       0.60761700      -1.33639902       1.79751751       0.00000000
Si      -1.51063686       1.71564651       0.56358003       0.00000000
Si      -0.66129255      -1.87872570      -1.26493628       0.00000000
Si       1.87493013       1.06060932      -0.98151385       0.00000000
Si      -1.66177548       2.67046857      -1.64200805       0.00000000
Si       2.93257467      -1.72908576       1.11578466       0.00000000
Si      -0.15131781       2.84741055       2.24328838       0.00000000
Si       3.61134639       0.45193347       0.49405613       0.00000000
Si      -2.48660334      -2.71127502      -0.05856091       0.00000000
Si      -1.32066288      -2.77610922       2.02681234       0.00000000
