10
Lattice="16.28999089631971 0.0 0.0 0.0 16.28999089631971 0.0 0.0 0.0 34.36671206372826" Properties=species:S:1:pos:R:3:initial_magmoms:R:1 pbc="T T T"
Si      -1.35565380      -1.35140211       1.35552698       0.00000000
Si       1.35257499      -1.35992178      -1.35679855       0.00000000
Si      -1.35987291       1.35420399      -1.35576755       0.00000000
Si       1.34465805       1.34423451       1.40037557       0.00000000
Si       2.71218726       2.71327869       0.00862605       0.00000000
Si       2.71235016      -0.00169416      -2.71352837       0.00000000
Si      -0.00249237       2.71329498      -2.71318470       0.00000000
Si       2.71238274      -2.71533123       0.00367724       0.00000000
Si      -2.71534752       2.71280628       0.00305864       0.00000000
Si      -0.00270414      -2.71577106      -2.71414697       0.00000000
