10
Lattice="16.28999089631971 0.0 0.0 0.0 16.28999089631971 0.0 0.0 0.0 34.36671206372826" Properties=species:S:1:pos:R:3:initial_magmoms:R:1 pbc="T T T"
Si      -1.35632169      -1.13723748      -1.48000328       0.00000000
Si      -1.95833493       0.92864403       1.02210095       0.00000000
Si       1.41441183       1.50144930      -1.27287499       0.00000000
Si       0.70949466      -1.40628312       1.88590875       0.00000000
Si      -0.33594867       1.94688306       2.48918235       0.00000000
Si       1.52401095       0.55227987       2.81645673       0.00000000
Si       0.11090232      -2.40547914      -2.80910225       0.00000000
Si      -3.18019896      -2.08054251      -0.36837699       0.00000000
Si      -2.59908579       0.33260922      -2.82831325       0.00000000
Si      -1.44208854      -1.96858134       3.08572007       0.00000000
