10
Lattice="16.28999089631971 0.0 0.0 0.0 16.28999089631971 0.0 0.0 0.0 34.36671206372826" Properties=species:S:1:pos:R:3:initial_magmoms:R:1 pbc="T T T"
Si      -2.36428173       0.18904545      -0.09529895       0.00000000
Si       0.15113862      -0.95482206       2.20558808       0.00000000
Si       0.59872266       2.30505129      -0.35820444       0.00000000
Si       0.62121915      -1.46567646      -1.88962035       0.00000000
Si      -1.31212692      -0.58624452      -3.23573085       0.00000000
Si       1.66177548      -2.67046857       1.64200805       0.00000000
Si      -2.18668815      -1.59154929       2.50829025       0.00000000
Si       2.55847482       2.53386063       0.94965589       0.00000000
Si      -2.98624207      -1.65947859      -1.52952574       0.00000000
Si       3.78918432       0.70622037       0.16654118       0.00000000
