10
Lattice="16.28999089631971 0.0 0.0 0.0 16.28999089631971 0.0 0.0 0.0 34.36671206372826" Properties=species:S:1:pos:R:3:initial_magmoms:R:1 pbc="T T T"
Si      -0.73648719      -1.71751986       1.49226331       0.00000000
Si       1.74307887       0.83048049       1.50874216       0.00000000
Si      -1.74566898       1.78377129       0.21118356       0.00000000
Si      -0.07768701      -0.94415211      -2.45155078       0.00000000
Si      -2.09074005      -0.38685492       2.93135300       0.00000000
Si       2.90514231       2.19929661       0.06656836       0.00000000
Si       0.63104202       2.33173431       2.94355662       0.00000000
Si      -2.53651590      -2.82227508       0.35730201       0.00000000
Si      -3.54524157       0.72078363       1.39255511       0.00000000
Si      -0.83106693       3.54393837       1.56750239       0.00000000
