10
Lattice="16.28999089631971 0.0 0.0 0.0 16.28999089631971 0.0 0.0 0.0 34.36671206372826" Properties=species:S:1:pos:R:3:initial_magmoms:R:1 pbc="T T T"
Si       0.71096076       0.84717774       2.05042229       0.00000000
Si       0.19745761      -2.22760048      -0.66726445       0.00000000
Si       1.37817310       1.14095160      -1.49907682       0.00000000
Si      -2.24492557       0.65827890      -0.05206560       0.00000000
Si      -1.50513151       2.40329628      -1.50993671       0.00000000
Si      -1.39852975      -2.03468616      -2.36608071       0.00000000
Si       3.12962503      -0.49645404      -1.36958297       0.00000000
Si      -2.73414685      -0.07196922       2.18256237       0.00000000
Si      -3.24255775      -1.08813942      -1.19675268       0.00000000
Si       0.85206637       3.15253854       1.71414382       0.00000000
