10
Lattice="16.28999089631971 0.0 0.0 0.0 16.28999089631971 0.0 0.0 0.0 34.36671206372826" Properties=species:S:1:pos:R:3:initial_magmoms:R:1 pbc="T T T"
Si       1.59632226       1.70320651       0.18070027       0.00000000
Si      -0.17888049      -0.26472879      -2.34920665       0.00000000
Si       1.37639097      -1.84433751       0.60354853       0.00000000
Si      -2.03005980       0.44736545       1.26964452       0.00000000
Si       3.24434898       0.67879031      -1.17468924       0.00000000
Si       2.17148958       1.31152812       2.44584590       0.00000000
Si      -0.90665253      -2.55406023      -2.46416337       0.00000000
Si       0.62677404      -3.51707616      -0.83473354       0.00000000
Si       0.67484583      -2.31950052       2.80418780       0.00000000
Si       0.60714459       3.62145338      -0.70441489       0.00000000
