10
Lattice="16.28999089631971 0.0 0.0 0.0 16.28999089631971 0.0 0.0 0.0 34.36671206372826" Properties=species:S:1:pos:R:3:initial_magmoms:R:1 pbc="T T T"
Si      -1.64778237      -0.60676992       1.57277769       0.00000000
Si       0.62349975       2.28736917      -0.61244952       0.00000000
Si       1.83215259      -1.63771515       0.39385137       0.00000000
Si      -2.05728039      -0.76427793      -1.41666540       0.00000000
Si      -0.18849159      -1.72030545      -2.66672088       0.00000000
Si       1.61578881       2.61308609       1.58465139       0.00000000
Si       2.18466819      -2.06997030      -1.91298973       0.00000000
Si      -0.31433184      -2.06498556       2.94221976       0.00000000
Si       1.66763988       1.67624167      -2.84669945       0.00000000
Si      -2.36203371       2.90286890       0.52457176       0.00000000
