10
Lattice="16.28999089631971 0.0 0.0 0.0 16.28999089631971 0.0 0.0 0.0 34.36671206372826" Properties=species:S:1:pos:R:3:initial_magmoms:R:1 pbc="T T T"
Si       1.34687349       1.35366642      -1.36033832       0.00000000
Si      -1.36598166      -1.35542574      -1.36051016       0.00000000
Si      -1.29528306       1.34219826       1.44797349       0.00000000
Si       1.43068554      -1.33211475       1.42628808       0.00000000
Si       2.14808085       0.58143897       2.52849789       0.00000000
Si      -0.37893798      -2.05889310       2.76081699       0.00000000
Si      -2.08956717      -0.45618516       2.79329355       0.00000000
Si       0.41585112       2.36346723       2.88811136       0.00000000
Si       2.70286938       0.00029322      -2.71909578       0.00000000
Si      -2.72541474       2.70049104       0.01305936       0.00000000
