10
Lattice="16.28999089631971 0.0 0.0 0.0 16.28999089631971 0.0 0.0 0.0 34.36671206372826" Properties=species:S:1:pos:R:3:initial_magmoms:R:1 pbc="T T T"
Si      -1.46939058       1.18899733      -1.34669473       0.00000000
Si       1.27658214      -1.52752537      -1.30284278       0.00000000
Si      -1.18682424      -1.69386256       1.29373560       0.00000000
Si       0.88873353       1.84058592       1.42704415       0.00000000
Si      -0.44789355       0.24238543       2.68483215       0.00000000
Si      -2.68390782       2.52672072       0.14633354       0.00000000
Si      -0.09831015       2.54405328      -2.69428300       0.00000000
Si       2.69835705       2.56736427       0.09251524       0.00000000
Si       2.61434952      -0.17474115      -2.69211789       0.00000000
Si      -0.82189566       3.44329386       1.45952071       0.00000000
