10
Lattice="16.28999089631971 0.0 0.0 0.0 16.28999089631971 0.0 0.0 0.0 34.36671206372826" Properties=species:S:1:pos:R:3:initial_magmoms:R:1 pbc="T T T"
Si       1.69200972      -0.26168256       1.61090616       0.00000000
Si      -2.19857985      -0.27974817       0.90446363       0.00000000
Si       0.72369954      -1.95480000      -1.23599949       0.00000000
Si       0.48216771       1.88270046      -1.47120540       0.00000000
Si       2.09578995      -0.65599830      -2.85852161       0.00000000
Si      -3.48592968      -0.68595561      -1.10124754       0.00000000
Si       2.69311167       2.44125198      -0.81009259       0.00000000
Si       3.53603772      -1.20822930       0.44157813       0.00000000
Si      -0.95638590      -3.56453612      -1.20551620       0.00000000
Si      -2.26126377      -2.16821855       2.31195311       0.00000000
