10
Lattice="16.28999089631971 0.0 0.0 0.0 16.28999089631971 0.0 0.0 0.0 34.36671206372826" Properties=species:S:1:pos:R:3:initial_magmoms:R:1 pbc="T T T"
Si      -1.36016613      -1.35356868       1.37843928       0.00000000
Si       1.36435266       1.35641943       1.37170340       0.00000000
Si       1.05326253      -1.66377915      -1.31404290       0.00000000
Si      -1.35902583       1.37627694      -1.43312706       0.00000000
Si      -2.67748956      -2.71984356       0.01658538       0.00000000
Si      -0.79935030      -3.48330699      -1.35658204       0.00000000
Si       2.70360243       2.70635544      -0.00885287       0.00000000
Si      -2.71327869       2.70694188       0.00596263       0.00000000
Si       0.00042354       2.71251306       2.73101072       0.00000000
Si      -2.71301805      -0.00364896       2.73321019       0.00000000
