10
Lattice="16.28999089631971 0.0 0.0 0.0 16.28999089631971 0.0 0.0 0.0 34.36671206372826" Properties=species:S:1:pos:R:3:initial_magmoms:R:1 pbc="T T T"
Si      -0.08619039      -1.14517071      -2.02289454       0.00000000
Si       0.46120248       2.19745584      -0.67657784       0.00000000
Si      -2.14306353       0.13121595       0.97010409       0.00000000
Si       1.94926140      -0.61274835       1.24888701       0.00000000
Si       1.66995306      -0.02739978      -3.16823459       0.00000000
Si      -0.76496211      -3.32618994      -1.40116600       0.00000000
Si       2.73432537       2.56266135      -0.08117422       0.00000000
Si       3.73774050       0.44929449       0.06859600       0.00000000
Si      -1.87600527       1.27247706       3.00935719       0.00000000
Si       1.75889646       0.56430189       3.31023792       0.00000000
