10
Lattice="16.28999089631971 0.0 0.0 0.0 16.28999089631971 0.0 0.0 0.0 34.36671206372826" Properties=species:S:1:pos:R:3:initial_magmoms:R:1 pbc="T T T"
Si      -1.46210895       1.21220406      -1.37605423       0.00000000
Si       1.34983827       1.36314720       1.35539295       0.00000000
Si      -1.36598166      -1.35185823       1.35718002       0.00000000
Si       1.11203685      -1.50125382      -1.43481447       0.00000000
Si      -2.37671100      -0.54796302      -2.73237306       0.00000000
Si       2.27410029      -0.13243770      -2.87698827       0.00000000
Si      -0.63104202      -2.33173431      -2.94355662       0.00000000
Si       2.70003492       2.70976005      -0.01316246       0.00000000
Si       2.69509905      -2.71917567      -0.02701912       0.00000000
Si       2.70881523       0.00302994       2.71277574       0.00000000
