10
Lattice="16.28999089631971 0.0 0.0 0.0 16.28999089631971 0.0 0.0 0.0 34.36671206372826" Properties=species:S:1:pos:R:3:initial_magmoms:R:1 pbc="T T T"
Si      -1.36024758       1.35378045      -1.36246906       0.00000000
Si       1.35428544      -1.36252818      -1.36611193       0.00000000
Si       1.34674317       1.35200484       1.39099345       0.00000000
Si      -1.35980775      -1.36876725       1.37625012       0.00000000
Si       2.70749574      -2.71529865      -0.00443331       0.00000000
Si       2.71164969       2.71352304      -0.00481134       0.00000000
Si      -2.71842633       2.71189404       0.00168397       0.00000000
Si       2.71140534      -0.00228060      -2.72033298       0.00000000
Si      -0.00281817       2.71233387      -2.72012678       0.00000000
Si      -2.71823085      -2.71671588      -0.00326484       0.00000000
