10
Lattice="16.28999089631971 0.0 0.0 0.0 16.28999089631971 0.0 0.0 0.0 34.36671206372826" Properties=species:S:1:pos:R:3:initial_magmoms:R:1 pbc="T T T"
Si       1.78271244      -0.27201042       1.51089897       0.00000000
Si      -1.70049681       1.49636682       0.72417576       0.00000000
Si       1.24815609       0.84911625      -1.87532379       0.00000000
Si      -1.39373982      -1.96310790       0.14966711       0.00000000
Si      -1.36673100      -1.45389879      -2.60187086       0.00000000
Si       1.79341497       2.00857329       2.31267481       0.00000000
Si      -1.57185468      -1.88877663       2.56970360       0.00000000
Si       0.70126821      -1.52357112       3.16510722       0.00000000
Si      -2.01412818       0.76072671      -2.93282248       0.00000000
Si      -3.36326598       1.15830045      -0.88906734       0.00000000
