10
Lattice="16.28999089631971 0.0 0.0 0.0 16.28999089631971 0.0 0.0 0.0 34.36671206372826" Properties=species:S:1:pos:R:3:initial_magmoms:R:1 pbc="T T T"
Si       1.33776738       1.35278422      -1.38927511       0.00000000
Si      -1.37647242      -1.35972630      -1.38398263       0.00000000
Si      -1.27658214       1.52752537       1.30284278       0.00000000
Si       1.35777150      -1.42327359       1.60925656       0.00000000
Si      -2.46340638      -0.16633719       2.59657838       0.00000000
Si       2.69632080       2.70611339      -0.01409036       0.00000000
Si       2.68869708      -2.71961550       0.00532684       0.00000000
Si       2.69884575       0.00003258      -2.74906357       0.00000000
Si      -2.74597272       2.71652270      -0.04385195       0.00000000
Si      -0.01888011       2.71367684      -2.74937287       0.00000000
