10
Lattice="16.28999089631971 0.0 0.0 0.0 16.28999089631971 0.0 0.0 0.0 34.36671206372826" Properties=species:S:1:pos:R:3:initial_magmoms:R:1 pbc="T T T"
Si       0.64739718      -2.21462550       0.33095162       0.00000000
Si       1.80716373       1.48315563      -0.42604437       0.00000000
Si      -1.34913780       0.39757374       2.04375514       0.00000000
Si      -0.68813847      -0.28057896      -2.50636571       0.00000000
Si      -2.59239060       0.70623666      -1.38618211       0.00000000
Si      -1.79092260      -2.71841004      -0.13873849       0.00000000
Si       3.26228427       0.08838954       1.05749869       0.00000000
Si       1.06634340       3.24011358       0.96000027       0.00000000
Si       2.01412818      -0.76072671       2.93282248       0.00000000
Si       0.31363137       0.73564011       3.65699824       0.00000000
