10
Lattice="16.28999089631971 0.0 0.0 0.0 16.28999089631971 0.0 0.0 0.0 34.36671206372826" Properties=species:S:1:pos:R:3:initial_magmoms:R:1 pbc="T T T"
Si       0.99763218       1.74641832       1.14468709       0.00000000
Si      -1.69200972       0.26168256      -1.61090616       0.00000000
Si      -0.57594924      -1.61074380       1.62637119       0.00000000
Si       1.84402800      -0.94654674      -1.16932803       0.00000000
Si      -0.96831018      -1.69311744      -2.84690565       0.00000000
Si      -0.53944335      -3.47358905       0.17582020       0.00000000
Si       0.75826692      -2.97777032      -1.74500515       0.00000000
Si       0.50841090       1.01617020       3.37931505       0.00000000
Si       3.24255775       1.08813942       1.19675268       0.00000000
Si       3.44001536      -1.13946106       0.52948823       0.00000000
