10
Lattice="16.28999089631971 0.0 0.0 0.0 16.28999089631971 0.0 0.0 0.0 34.36671206372826" Properties=species:S:1:pos:R:3:initial_magmoms:R:1 pbc="T T T"
Si       1.59050673      -1.63610244      -0.43800399       0.00000000
Si      -0.14284701       0.22182093       2.34645731       0.00000000
Si      -2.21063445      -0.25487334      -0.89037327       0.00000000
Si       1.40625054       1.93139127      -0.53509001       0.00000000
Si      -1.14626214       2.33518779       2.19668710       0.00000000
Si       0.85418244      -2.42460360      -2.54581872       0.00000000
Si      -0.06481791       3.58674849       0.54247885       0.00000000
Si       0.85071267      -3.38111982       1.01986712       0.00000000
Si       1.66382802       1.58164497      -2.90900634       0.00000000
Si      -3.24127017       1.89565101      -0.81875301       0.00000000
