10
Lattice="16.28999089631971 0.0 0.0 0.0 16.28999089631971 0.0 0.0 0.0 34.36671206372826" Properties=species:S:1:pos:R:3:initial_magmoms:R:1 pbc="T T T"
Si      -1.00341513       2.11336686      -0.14977021       0.00000000
Si       0.14284701      -0.22182093      -2.34645731       0.00000000
Si      -1.78847910      -1.06204284       1.18029102       0.00000000
Si       2.09608317       0.02790477       1.20324800       0.00000000
Si       1.54909755       1.70957034      -2.88154732       0.00000000
Si      -3.73774050      -0.44929449      -0.06859600       0.00000000
Si       1.73335374      -1.85792337      -2.78446130       0.00000000
Si       1.68039495      -1.32295977       3.10671814       0.00000000
Si      -3.27653802       1.74816135      -0.74517383       0.00000000
Si      -1.97884404       0.11500740       3.24164193       0.00000000
