10
Lattice="16.28999089631971 0.0 0.0 0.0 16.28999089631971 0.0 0.0 0.0 34.36671206372826" Properties=species:S:1:pos:R:3:initial_magmoms:R:1 pbc="T T T"
Si       1.70336126       0.25679556       1.57801720       0.00000000
Si      -1.86113250       0.52566201       1.36594010       0.00000000
Si       0.41568822       1.35086454      -1.90347014       0.00000000
Si       0.47017827      -2.19276432      -0.79775493       0.00000000
Si       2.41015667       0.21427866      -2.66709891       0.00000000
Si      -0.97090029       1.92705813       3.05936078       0.00000000
Si      -1.68039495       1.32295977      -3.10671814       0.00000000
Si       2.75474393      -1.92847536       1.72335411       0.00000000
Si       2.26905106      -2.09108214      -2.33082045       0.00000000
Si      -1.17605655      -3.01022910      -2.19868037       0.00000000
