10
Lattice="16.28999089631971 0.0 0.0 0.0 16.28999089631971 0.0 0.0 0.0 34.36671206372826" Properties=species:S:1:pos:R:3:initial_magmoms:R:1 pbc="T T T"
Si      -1.34674317      -1.35200484      -1.39099345       0.00000000
Si       1.36490652       1.36151820      -1.39580479       0.00000000
Si      -1.33092558       1.29634191       1.60392972       0.00000000
Si       1.49195223      -1.22367222       1.53234381       0.00000000
Si       0.46027395       2.14283547       2.97987053       0.00000000
Si      -2.68869708       2.71961550      -0.00532684       0.00000000
Si       2.71498914      -2.71098180       0.00419274       0.00000000
Si      -2.70655092      -2.72077209      -0.01474333       0.00000000
Si       2.69219943       2.74968684      -0.02735592       0.00000000
Si      -2.70699075       0.00177561      -2.75346251       0.00000000
