10
Lattice="16.28999089631971 0.0 0.0 0.0 16.28999089631971 0.0 0.0 0.0 34.36671206372826" Properties=species:S:1:pos:R:3:initial_magmoms:R:1 pbc="T T T"
Si      -1.99945089       1.31051421       0.33844357       0.00000000
Si      -1.33457454      -2.04032250       0.78002170       0.00000000
Si       1.51723431       1.42840494      -1.60032121       0.00000000
Si       2.87863848       0.48729906       0.99972821       0.00000000
Si      -0.99582399      -1.34921925       3.01836127       0.00000000
Si       2.96855928      -1.77158637      -0.02374741       0.00000000
Si      -2.02645971       0.80130510       3.08998154       0.00000000
Si       0.61543620       3.61352925       1.06499064       0.00000000
Si      -0.63271989       2.76441300       2.94031443       0.00000000
Si      -0.14195106      -4.07750103       0.70180302       0.00000000
