10
Lattice="16.28999089631971 0.0 0.0 0.0 16.28999089631971 0.0 0.0 0.0 34.36671206372826" Properties=species:S:1:pos:R:3:initial_magmoms:R:1 pbc="T T T"
Si      -1.08144423      -1.25156070       1.65420824       0.00000000
Si      -1.78271244       0.27201042      -1.51089897       0.00000000
Si       0.01070253       2.28058371       0.80177584       0.00000000
Si       1.47106845      -1.65535722      -1.07756886       0.00000000
Si       2.63369114       0.71532648      -1.73995324       0.00000000
Si      -1.01007774       0.17905968       3.43811653       0.00000000
Si      -0.53455635       1.12112667      -3.38622277       0.00000000
Si       0.06481791      -3.58674849      -0.54247885       0.00000000
Si      -1.77720642       2.17512225       2.47165531       0.00000000
Si      -0.07802910      -3.36492756       1.80397846       0.00000000
