10
Lattice="16.28999089631971 0.0 0.0 0.0 16.28999089631971 0.0 0.0 0.0 34.36671206372826" Properties=species:S:1:pos:R:3:initial_magmoms:R:1 pbc="T T T"
Si      -0.07136649      -1.43062038      -1.78390829       0.00000000
Si      -1.24620129      -1.06342749       1.62489342       0.00000000
Si      -0.76712868       1.99606257      -0.96646122       0.00000000
Si       2.22003378       0.34497333       0.69300514       0.00000000
Si       1.02078027       2.10152403      -2.63634069       0.00000000
Si      -0.04681746      -0.22871160       3.51935948       0.00000000
Si       1.01007774      -0.17905968      -3.43811653       0.00000000
Si      -0.72684351       3.46664232       0.87105917       0.00000000
Si       2.13221439       0.53807499       3.03664437       0.00000000
Si      -3.54522528      -0.67559517       1.11042345       0.00000000
