10
Lattice="16.28999089631971 0.0 0.0 0.0 16.28999089631971 0.0 0.0 0.0 34.36671206372826" Properties=species:S:1:pos:R:3:initial_magmoms:R:1 pbc="T T T"
Si      -1.49760486      -1.24199847       1.21817931       0.00000000
Si       1.36834371       1.55976750       1.15660787       0.00000000
Si       1.14538248      -1.48678830      -1.54341235       0.00000000
Si      -0.83869065       0.94812687      -2.09671672       0.00000000
Si       1.58646681       0.75644244      -2.30009904       0.00000000
Si       0.14791320      -2.35276470       2.61216610       0.00000000
Si       2.88955817       1.94916366      -0.64417246       0.00000000
Si      -2.57562819       0.36641097       2.62445908       0.00000000
Si       2.85073371       0.36116559       2.61459926       0.00000000
Si      -3.00156282      -2.47578678      -0.23936673       0.00000000
