10
Lattice="16.28999089631971 0.0 0.0 0.0 16.28999089631971 0.0 0.0 0.0 34.36671206372826" Properties=species:S:1:pos:R:3:initial_magmoms:R:1 pbc="T T T"
Si       0.19523565      -0.99139311      -2.10798656       0.00000000
Si       1.93334607      -0.87943194       1.34611050       0.00000000
Si       1.41709968       2.01779343      -0.71750862       0.00000000
Si      -1.67411515      -1.07323407       1.70620511       0.00000000
Si      -1.63486440       0.74008728      -2.07320743       0.00000000
Si      -1.05215481       0.77528997       3.14043190       0.00000000
Si       1.31212692       0.58624452       3.23573085       0.00000000
Si      -3.03588259       1.92673233      -0.03711607       0.00000000
Si       2.01911292      -0.04808808      -3.21961285       0.00000000
Si       3.37543461       1.08914940      -1.73960957       0.00000000
