10
Lattice="16.28999089631971 0.0 0.0 0.0 16.28999089631971 0.0 0.0 0.0 34.36671206372826" Properties=species:S:1:pos:R:3:initial_magmoms:R:1 pbc="T T T"
Si       1.31841486       0.53983431      -1.94440092       0.00000000
Si      -0.77836878      -2.28972240      -0.29129241       0.00000000
Si      -2.14067053       1.05112854      -0.65506426       0.00000000
Si       0.54353214       0.61577829       2.37030782       0.00000000
Si      -1.76894087       0.27593631      -2.87787008       0.00000000
Si      -1.12985322       3.19808538      -0.02931482       0.00000000
Si      -0.71755821      -1.90933461      -2.73253317       0.00000000
Si       1.29702609       3.28253274      -0.88037255       0.00000000
Si       2.41106661      -1.00523961       2.68901599       0.00000000
Si       1.56752154      -1.43617527      -3.17555470       0.00000000
