10
Lattice="16.28999089631971 0.0 0.0 0.0 16.28999089631971 0.0 0.0 0.0 34.36671206372826" Properties=species:S:1:pos:R:3:initial_magmoms:R:1 pbc="T T T"
Si       1.35560655       1.35785295       1.35721095       0.00000000
Si      -1.35758322      -1.35801748       1.35611122       0.00000000
Si       1.35733655      -1.35825368      -1.35765772       0.00000000
Si      -1.35826740       1.35811359      -1.35731405       0.00000000
Si      -0.00023602       2.71647153       2.71033226       0.00000000
Si      -2.71250397       0.00259011       2.71565910       0.00000000
Si      -0.00088942       2.71458189      -2.71387203       0.00000000
Si       2.71433753       2.71467963      -0.00034367       0.00000000
Si       2.71490768       0.00130320      -2.71514360       0.00000000
Si      -2.71540359       2.71477737      -0.00010310       0.00000000
