10
Lattice="16.28999089631971 0.0 0.0 0.0 16.28999089631971 0.0 0.0 0.0 34.36671206372826" Properties=species:S:1:pos:R:3:initial_magmoms:R:1 pbc="T T T"
Si       1.02614131      -0.23358231      -2.14183779       0.00000000
Si       1.20373489      -2.01417705       0.46175140       0.00000000
Si       0.30301681       1.62766422       1.78370209       0.00000000
Si      -2.25341755       0.66287268      -0.70053145       0.00000000
Si       0.28803652      -2.15537877       2.62063509       0.00000000
Si      -1.09079485       3.03355638      -1.36291583       0.00000000
Si       0.11523383       1.74306258      -3.06853670       0.00000000
Si      -2.06916136      -2.90462103      -0.60344543       0.00000000
Si      -1.99584007       0.31312638      -3.07444778       0.00000000
Si      -0.00000652       3.72296547       0.67317553       0.00000000
