10
Lattice="16.28999089631971 0.0 0.0 0.0 16.28999089631971 0.0 0.0 0.0 34.36671206372826" Properties=species:S:1:pos:R:3:initial_magmoms:R:1 pbc="T T T"
Si       1.44321255       1.17564930      -1.40449957       0.00000000
Si      -2.00493573      -0.47894229      -1.11276039       0.00000000
Si      -0.59937426       1.27215126       1.88999839       0.00000000
Si       1.18736181      -1.89038934       0.80720578       0.00000000
Si      -1.73253924      -0.66966561       2.88158168       0.00000000
Si      -3.22325995      -0.91450431       0.94594428       0.00000000
Si       1.49128434       2.37322494       2.23442177       0.00000000
Si      -2.30795905       1.61635896      -2.22328695       0.00000000
Si       2.19282948       2.84838795       0.03378250       0.00000000
Si       2.59292817      -2.35229229      -1.05770489       0.00000000
