10
Lattice="16.28999089631971 0.0 0.0 0.0 16.28999089631971 0.0 0.0 0.0 34.36671206372826" Properties=species:S:1:pos:R:3:initial_magmoms:R:1 pbc="T T T"
Si      -1.12716700       0.68649318       1.96966047       0.00000000
Si       0.79029306      -2.22096231       0.34957839       0.00000000
Si      -1.49072071      -0.24483870      -1.93563741       0.00000000
Si       1.13316498       1.94181687      -0.99158330       0.00000000
Si       1.73253924       0.66966561      -2.88158168       0.00000000
Si       0.36357651       2.42527149       2.61032507       0.00000000
Si      -3.08994326       1.40532201      -1.26988509       0.00000000
Si      -3.17776265       1.59842367       1.07375415       0.00000000
Si       2.07179478      -0.54320634       3.08520457       0.00000000
Si       2.91990105      -1.22072373      -2.07437590       0.00000000
