10
Lattice="16.28999089631971 0.0 0.0 0.0 16.28999089631971 0.0 0.0 0.0 34.36671206372826" Properties=species:S:1:pos:R:3:initial_magmoms:R:1 pbc="T T T"
Si       1.35351981      -1.35651717       1.36057889       0.00000000
Si      -1.36034428       1.36073549       1.35958226       0.00000000
Si       1.34664543       1.37409635      -1.36661713       0.00000000
Si      -1.37318903      -1.36762695      -1.37635322       0.00000000
Si       2.71191033      -2.70907587       0.00154650       0.00000000
Si      -2.71787966      -2.70791928       0.00216510       0.00000000
Si      -0.00379720      -2.71134018       2.71720561       0.00000000
Si       2.71179630       0.00309510       2.71693067       0.00000000
Si       2.71352304       2.71527977      -0.00158087       0.00000000
Si      -2.71553390       2.71511199      -0.00178707       0.00000000
