10
Lattice="16.28999089631971 0.0 0.0 0.0 16.28999089631971 0.0 0.0 0.0 34.36671206372826" Properties=species:S:1:pos:R:3:initial_magmoms:R:1 pbc="T T T"
Si      -1.35698567      -1.35733167      -1.35731405       0.00000000
Si       1.35823088       1.35747372      -1.35721095       0.00000000
Si      -1.35958052       1.35786924       1.35875745       0.00000000
Si       1.36000649      -1.35780408       1.35944479       0.00000000
Si       2.71463402       2.71443269      -0.00027493       0.00000000
Si      -2.71434147       0.00016290      -2.71476557       0.00000000
Si      -2.71427631       2.71497841      -0.00140904       0.00000000
Si      -0.00034046      -2.71412577      -2.71517797       0.00000000
Si       0.00064346       2.71474220      -2.71517797       0.00000000
Si       0.00964042       2.70699631       2.72311669       0.00000000
