10
Lattice="16.28999089631971 0.0 0.0 0.0 16.28999089631971 0.0 0.0 0.0 34.71893929493243" Properties=species:S:1:pos:R:3:initial_magmoms:R:1 pbc="T T T"
Si       1.35602847       1.35631517      -1.35792791       0.00000000
Si       1.35720135      -1.35742631       1.35671275       0.00000000
Si      -1.35733167      -1.35816017      -1.35705994       0.00000000
Si      -1.35786924       1.35760208       1.35740713       0.00000000
Si       0.00229689      -2.71224983      -2.71023135       0.00000000
Si       2.71337643       0.00061088       2.71328662       0.00000000
Si       0.00073305      -2.71373222       2.71391156       0.00000000
Si       0.00027693       2.71420070       2.71429347       0.00000000
Si       2.71464705      -2.71467704       0.00010416       0.00000000
Si      -2.71510317      -0.00000977       2.71460594       0.00000000
