10
Lattice="16.28999089631971 0.0 0.0 0.0 16.28999089631971 0.0 0.0 0.0 34.71893929493243" Properties=species:S:1:pos:R:3:initial_magmoms:R:1 pbc="T T T"
Si      -0.70517781      -1.82213424       1.40379166       0.00000000
Si       0.71436537       2.02874031       1.13065761       0.00000000
Si       1.37051028      -1.31583615      -1.55148611       0.00000000
Si      -1.34897490       1.36580247      -1.55183330       0.00000000
Si      -2.53690686      -2.57844701      -0.07693721       0.00000000
Si       2.66494626       2.65044816      -0.16383877       0.00000000
Si      -2.71173114       2.67587685      -0.09030401       0.00000000
Si       2.69949735      -2.74643603      -0.16946324       0.00000000
Si       0.00669519      -2.68764542      -2.93330066       0.00000000
Si      -2.70632286       0.02914281      -2.93514077       0.00000000
