10
Lattice="16.28999089631971 0.0 0.0 0.0 16.28999089631971 0.0 0.0 0.0 34.71893929493243" Properties=species:S:1:pos:R:3:initial_magmoms:R:1 pbc="T T T"
Si      -1.35658233      -1.35454608       1.35633084       0.00000000
Si       1.35985662      -1.35146727      -1.35983746       0.00000000
Si       1.35897696       1.36016613       1.35653915       0.00000000
Si      -1.35363384       1.35894438      -1.36365654       0.00000000
Si       0.00102627      -2.71199178       2.71432819       0.00000000
Si      -2.71526607      -2.71249677      -0.00267336       0.00000000
Si      -2.71376739       0.00241092       2.71450179       0.00000000
Si       2.71552671      -2.71332756      -0.00142348       0.00000000
Si       2.71658556       0.00280188       2.71370325       0.00000000
Si       2.71520091       2.71606428      -0.00062494       0.00000000
