10
Lattice="16.28999089631971 0.0 0.0 0.0 16.28999089631971 0.0 0.0 0.0 34.71893929493243" Properties=species:S:1:pos:R:3:initial_magmoms:R:1 pbc="T T T"
Si       1.35625653      -1.35969372      -1.36532305       0.00000000
Si      -1.36047564       1.35544203      -1.36608687       0.00000000
Si       1.35283563       1.36910934       1.38316860       0.00000000
Si      -1.35892809      -1.37987703       1.37549571       0.00000000
Si       2.65499307      -0.09523134       2.76349024       0.00000000
Si       2.71088406       2.71332756      -0.00447875       0.00000000
Si      -2.71754667       2.71363707      -0.00003472       0.00000000
Si       2.71450044      -2.71808424      -0.00916581       0.00000000
Si      -2.71627605      -2.71653669      -0.00781177       0.00000000
Si       2.71321353      -0.00091224      -2.72210524       0.00000000
