10
Lattice="16.28999089631971 0.0 0.0 0.0 16.28999089631971 0.0 0.0 0.0 34.71893929493243" Properties=species:S:1:pos:R:3:initial_magmoms:R:1 pbc="T T T"
Si      -1.47074265      -1.71370800       0.34222478       0.00000000
Si       0.56811375      -0.65288691      -2.19406459       0.00000000
Si       0.31486941       1.17009441       2.08185292       0.00000000
Si      -1.47235536       1.31531976      -1.97425887       0.00000000
Si      -3.35697804      -0.32272119       0.70465599       0.00000000
Si      -0.75720807      -2.17091943       2.59347150       0.00000000
Si      -1.14129369      -0.01407456       3.54081300       0.00000000
Si       2.55588471       0.66772710       2.65523652       0.00000000
Si      -3.53887218       1.54491102      -0.71392595       0.00000000
Si       3.93882426       0.76721013       0.68635909       0.00000000
