10
Lattice="16.28999089631971 0.0 0.0 0.0 16.28999089631971 0.0 0.0 0.0 34.71893929493243" Properties=species:S:1:pos:R:3:initial_magmoms:R:1 pbc="T T T"
Si       2.06004969      -0.09526392       1.13638624       0.00000000
Si       0.09549198      -0.64283598      -2.27895245       0.00000000
Si      -1.17978696      -1.78026894       1.10072987       0.00000000
Si      -0.72744624       2.33500860       0.10853146       0.00000000
Si       1.72551825       1.77070671       2.46515022       0.00000000
Si      -2.13509772      -0.26658585      -2.85931456       0.00000000
Si       1.31269707       3.36906522       0.77600345       0.00000000
Si      -0.95262291       2.99509569      -2.10067060       0.00000000
Si       2.28522636      -2.20020885       2.14233335       0.00000000
Si       0.40505085      -3.51117918       1.56308224       0.00000000
