10
Lattice="16.28999089631971 0.0 0.0 0.0 16.28999089631971 0.0 0.0 0.0 34.71893929493243" Properties=species:S:1:pos:R:3:initial_magmoms:R:1 pbc="T T T"
Si      -0.33453144       1.86597063       1.32876399       0.00000000
Si       0.22517667      -2.10494493       1.00594711       0.00000000
Si      -2.06004969       0.09526392      -1.13638624       0.00000000
Si       2.14749441       0.66868821      -0.71705065       0.00000000
Si      -0.74735262       3.46432914      -0.36038279       0.00000000
Si       3.18489048      -1.38621384      -1.04910277       0.00000000
Si      -3.23983665      -1.68500502      -0.03565637       0.00000000
Si       2.53180809      -2.56341069       0.88345862       0.00000000
Si       3.08330604       1.87854651       1.08823104       0.00000000
Si      -0.32607693      -1.93060935       3.23993851       0.00000000
