10
Lattice="16.28999089631971 0.0 0.0 0.0 16.28999089631971 0.0 0.0 0.0 34.71893929493243" Properties=species:S:1:pos:R:3:initial_magmoms:R:1 pbc="T T T"
Si       1.34705268       1.32927461      -1.35400814       0.00000000
Si       1.35410625      -1.35923760       1.35296310       0.00000000
Si      -1.35962856       1.35408966       1.35317142       0.00000000
Si      -1.35601218      -1.36417347      -1.36651044       0.00000000
Si      -0.15864831       2.52504189      -2.65553858       0.00000000
Si       2.50978401      -0.11688075      -2.81979744       0.00000000
Si      -2.79083538      -0.03031569      -2.59063148       0.00000000
Si      -0.00229689       2.71224983       2.71023135       0.00000000
Si       2.71235016      -0.00242721       2.71033551       0.00000000
Si      -0.00179190      -2.71756296       2.70964113       0.00000000
