10
Lattice="16.28999089631971 0.0 0.0 0.0 16.28999089631971 0.0 0.0 0.0 34.71893929493243" Properties=species:S:1:pos:R:3:initial_magmoms:R:1 pbc="T T T"
Si      -0.93869496      -2.11973625       0.43096643       0.00000000
Si      -1.25318970       1.61905400       1.25175734       0.00000000
Si       2.33800596      -0.55832346       0.25646895       0.00000000
Si       2.79433773       1.59450008      -0.47721209       0.00000000
Si       0.16615800       1.14017687      -3.26097820       0.00000000
Si       0.26037936       3.47301890       1.25342385       0.00000000
Si      -3.28759404      -1.91231568       0.01142254       0.00000000
Si      -3.74453832       0.00860112      -1.24127221       0.00000000
Si      -0.43526880      -2.99628486       2.59774193       0.00000000
Si      -1.56361194       1.15594722       3.50404563       0.00000000
