10
Lattice="16.28999089631971 0.0 0.0 0.0 16.28999089631971 0.0 0.0 0.0 34.71893929493243" Properties=species:S:1:pos:R:3:initial_magmoms:R:1 pbc="T T T"
Si       1.24349226      -1.74725074       1.10243110       0.00000000
Si      -1.30923449      -1.25738600      -1.59592637       0.00000000
Si       1.33073010       0.66648906      -1.94037316       0.00000000
Si      -1.18875365       1.98969318       1.02750758       0.00000000
Si      -0.43320716       0.02076975      -3.40641591       0.00000000
Si       1.02295010       2.99926593      -1.99828439       0.00000000
Si       3.11823180      -0.52383916       2.08060304       0.00000000
Si      -0.61715384       3.74453343      -0.46915729       0.00000000
Si       1.49910354      -3.47775929      -0.62570507       0.00000000
Si      -3.61540979      -1.01900466      -1.09545258       0.00000000
