10
Lattice="16.28999089631971 0.0 0.0 0.0 16.28999089631971 0.0 0.0 0.0 34.71893929493243" Properties=species:S:1:pos:R:3:initial_magmoms:R:1 pbc="T T T"
Si       0.02476080      -1.73865029       1.54683377       0.00000000
Si      -0.71201961       1.49285307       1.70383290       0.00000000
Si      -1.44241434      -0.80932711      -1.73869073       0.00000000
Si       2.28364623       0.22055357      -0.76194227       0.00000000
Si       1.68868656      -0.96909440       3.00419678       0.00000000
Si       1.44614475       1.74725400       2.86591116       0.00000000
Si      -1.81952784      -3.11026829      -1.02934769       0.00000000
Si       2.39474403      -1.02669584      -2.81796428       0.00000000
Si       0.08519670      -1.18435046      -3.69034756       0.00000000
Si      -3.42860517       0.77307942      -1.67765480       0.00000000
