10
Lattice="16.28999089631971 0.0 0.0 0.0 16.28999089631971 0.0 0.0 0.0 34.71893929493243" Properties=species:S:1:pos:R:3:initial_magmoms:R:1 pbc="T T T"
Si       1.07683416       1.67154948      -1.30203039       0.00000000
Si      -0.82837908       1.59615936       1.66081611       0.00000000
Si      -1.77096735      -1.18671021      -1.20835864       0.00000000
Si       1.82278584      -1.67822838       0.06947264       0.00000000
Si      -0.35083773      -0.38832102       2.96656143       0.00000000
Si       2.37032532       0.26658585      -2.63211370       0.00000000
Si      -0.36097011      -2.46598020      -2.61513613       0.00000000
Si       2.64622905       2.80038132       0.07645115       0.00000000
Si       3.70516050      -0.91269612      -1.11649227       0.00000000
Si      -0.36442359       2.99981979      -2.59551991       0.00000000
