10
Lattice="16.28999089631971 0.0 0.0 0.0 16.28999089631971 0.0 0.0 0.0 34.71893929493243" Properties=species:S:1:pos:R:3:initial_magmoms:R:1 pbc="T T T"
Si       0.47754135      -1.98448038       1.30574532       0.00000000
Si       0.82837908      -1.59615936      -1.66081611       0.00000000
Si      -1.94523777       1.26237726      -1.10395873       0.00000000
Si       0.97132383       2.05552107       1.35740713       0.00000000
Si       1.90521324       0.07539012      -2.96284650       0.00000000
Si      -2.91022479       2.14549074       1.12874807       0.00000000
Si      -0.74609829       2.84094342      -2.59291599       0.00000000
Si       2.58175323       2.99643147      -0.16835223       0.00000000
Si      -0.90539820      -2.08396341       3.27462275       0.00000000
Si       3.47460813       1.20422196      -1.58436496       0.00000000
