10
Lattice="16.28999089631971 0.0 0.0 0.0 16.28999089631971 0.0 0.0 0.0 34.71893929493243" Properties=species:S:1:pos:R:3:initial_magmoms:R:1 pbc="T T T"
Si      -1.63492956       1.32844950      -1.11718665       0.00000000
Si      -1.61042940      -0.94091040       1.52575936       0.00000000
Si       0.89285490      -1.79220951      -1.41601273       0.00000000
Si       2.16634194       1.01778291       0.90578291       0.00000000
Si       2.09955294      -0.24469209      -2.70832181       0.00000000
Si       2.27154276      -0.83368962       2.54392754       0.00000000
Si       0.03347595      -1.29647223       3.32142390       0.00000000
Si      -1.64111976       3.40392582       0.61483804       0.00000000
Si      -0.68264874       2.56075542      -2.79932020       0.00000000
Si      -2.58175323      -2.99643147       0.16835223       0.00000000
