10
Lattice="16.28999089631971 0.0 0.0 0.0 16.28999089631971 0.0 0.0 0.0 34.71893929493243" Properties=species:S:1:pos:R:3:initial_magmoms:R:1 pbc="T T T"
Si       1.22007213       1.70748522      -1.08979339       0.00000000
Si       0.05597244       0.29457207       2.34745295       0.00000000
Si       0.80739756      -2.06601183      -0.84825360       0.00000000
Si      -2.31919101       0.41886477      -0.51679170       0.00000000
Si       0.19922670       1.52067150      -3.19105421       0.00000000
Si      -2.20822353       1.13233419       2.61031019       0.00000000
Si      -2.28380913       1.53155322      -2.56066208       0.00000000
Si      -0.24853653      -2.40358950      -2.91597590       0.00000000
Si      -1.06684839      -0.32680998      -3.66673867       0.00000000
Si       1.95954039       1.36593279       3.22219712       0.00000000
