10
Lattice="16.28999089631971 0.0 0.0 0.0 16.28999089631971 0.0 0.0 0.0 34.71893929493243" Properties=species:S:1:pos:R:3:initial_magmoms:R:1 pbc="T T T"
Si       0.26759583       1.93965030      -1.35688634       0.00000000
Si       2.07164817       0.11192859       1.18787445       0.00000000
Si      -1.75607829      -0.20940795       1.61793819       0.00000000
Si      -0.33681204      -1.69259616      -1.70702704       0.00000000
Si      -1.87250292      -0.41946750      -3.01391809       0.00000000
Si      -0.77555061      -1.96597494       2.97590083       0.00000000
Si       2.54306448       1.72118511      -2.05591786       0.00000000
Si       2.69206911      -2.13742719       1.43187929       0.00000000
Si       1.89187173      -1.94416263      -2.56350903       0.00000000
Si       1.59544260       1.07893557       3.24059817       0.00000000
