10
Lattice="16.28999089631971 0.0 0.0 0.0 16.28999089631971 0.0 0.0 0.0 34.71893929493243" Properties=species:S:1:pos:R:3:initial_magmoms:R:1 pbc="T T T"
Si       1.68577065      -1.61692911      -0.58043155       0.00000000
Si      -2.13187230      -1.08947520      -0.73229228       0.00000000
Si      -0.39350124       1.60436952      -1.98220951       0.00000000
Si       0.00752598      -0.36890334       2.61131704       0.00000000
Si       0.31747581      -3.04968348       0.63539166       0.00000000
Si       1.51006671       2.67573024      -1.10746534       0.00000000
Si       1.63761741      -2.35460547       2.62121194       0.00000000
Si      -2.65769721       2.44213164      -1.71935227       0.00000000
Si      -1.66575024      -2.90527263      -2.20309152       0.00000000
Si      -2.72901483      -2.99406942       0.66695120       0.00000000
