10
Lattice="16.28999089631971 0.0 0.0 0.0 16.28999089631971 0.0 0.0 0.0 34.71893929493243" Properties=species:S:1:pos:R:3:initial_magmoms:R:1 pbc="T T T"
Si       1.35765095      -1.35738054       1.35685162       0.00000000
Si      -1.35750075      -1.35674523      -1.35844870       0.00000000
Si       1.35686903       1.35791811      -1.35799735       0.00000000
Si      -1.36071740       1.36024758       1.36358710       0.00000000
Si      -2.71454672      -2.71211721      -0.00062494       0.00000000
Si       2.71345136       2.71459818      -0.00142348       0.00000000
Si      -0.00032417      -2.71441736      -2.71509201       0.00000000
Si       2.71480343      -2.71474805      -0.00034719       0.00000000
Si       2.71464053       0.00055386      -2.71550864       0.00000000
Si      -2.71547525       0.00055386      -2.71516145       0.00000000
