10
Lattice="16.28999089631971 0.0 0.0 0.0 16.28999089631971 0.0 0.0 0.0 34.71893929493243" Properties=species:S:1:pos:R:3:initial_magmoms:R:1 pbc="T T T"
Si      -0.71267121      -1.83705588      -1.26748503       0.00000000
Si       1.86378777       0.86148038      -1.16943869       0.00000000
Si      -1.71274689       1.73575393      -0.02006756       0.00000000
Si      -1.67114223      -0.99388548       2.14667322       0.00000000
Si      -2.15428734      -0.58586985      -2.58718736       0.00000000
Si       0.57461346       2.16433405      -2.58527782       0.00000000
Si      -2.11372524       1.51420667       2.25912792       0.00000000
Si      -1.66495203      -3.06936180       0.41464852       0.00000000
Si      -3.51981288       0.71599437      -1.17461181       0.00000000
Si      -0.70374429       3.60574982      -1.14746158       0.00000000
