10
Lattice="16.28999089631971 0.0 0.0 0.0 16.28999089631971 0.0 0.0 0.0 34.71893929493243" Properties=species:S:1:pos:R:3:initial_magmoms:R:1 pbc="T T T"
Si       1.35764118      -1.35638685       1.35744185       0.00000000
Si      -1.35726651       1.35835794       1.35751129       0.00000000
Si      -1.36676358      -1.35536058      -1.36293786       0.00000000
Si       1.36335897       1.36933740      -1.36075056       0.00000000
Si       2.60038899      -0.05352894      -2.77738476       0.00000000
Si      -0.06356358       2.64622905      -2.77089579       0.00000000
Si      -2.71327869      -2.70866862       0.00045135       0.00000000
Si       2.71676475      -2.70990177       0.00118044       0.00000000
Si       0.00024435      -2.71237297       2.71571695       0.00000000
Si      -2.71379997       0.00151497       2.71575167       0.00000000
