10
Lattice="16.28999089631971 0.0 0.0 0.0 16.28999089631971 0.0 0.0 0.0 34.71893929493243" Properties=species:S:1:pos:R:3:initial_magmoms:R:1 pbc="T T T"
Si      -1.35694071      -1.32881928       1.35476849       0.00000000
Si      -1.35433431       1.35527913      -1.35771960       0.00000000
Si       1.36060596      -1.35631680      -1.35771960       0.00000000
Si       1.34749251       1.37081979       1.38188399       0.00000000
Si      -0.06776640      -2.63167296       2.77060762       0.00000000
Si      -2.71288773      -0.00086337      -2.71488369       0.00000000
Si      -2.71202436       2.71669959       0.00374965       0.00000000
Si       0.00206883       2.71446786      -2.71439763       0.00000000
Si      -2.71705797      -2.71248439       0.00243033       0.00000000
Si       2.71443528       2.71604799       0.00649245       0.00000000
