10
Lattice="16.28999089631971 0.0 0.0 0.0 16.28999089631971 0.0 0.0 0.0 34.71893929493243" Properties=species:S:1:pos:R:3:initial_magmoms:R:1 pbc="T T T"
Si       0.57225141      -1.53173730      -1.63915148       0.00000000
Si      -1.39066101       1.84394655       0.38468606       0.00000000
Si      -0.74192805      -1.67783742       1.50065755       0.00000000
Si       1.92381642       1.42487001       0.70875282       0.00000000
Si       1.72732644       0.40250961       2.83480298       0.00000000
Si       0.47755764      -3.39305129       0.50557748       0.00000000
Si       0.37268262       3.17228202       1.53763324       0.00000000
Si       1.99518291      -0.22566537      -2.98013654       0.00000000
Si      -2.58836697       1.88423172      -1.71775520       0.00000000
Si      -0.11958489      -0.83751777       3.57115737       0.00000000
