10
Lattice="16.28999089631971 0.0 0.0 0.0 16.28999089631971 0.0 0.0 0.0 34.71893929493243" Properties=species:S:1:pos:R:3:initial_magmoms:R:1 pbc="T T T"
Si      -1.28917431       1.30285367      -1.41583914       0.00000000
Si       1.33621983       1.34391099       1.35688634       0.00000000
Si      -1.86378777      -0.86148038       1.16943869       0.00000000
Si       1.42068348      -1.43816267      -1.37664143       0.00000000
Si      -2.57645898      -2.69853626      -0.09804634       0.00000000
Si       1.24152606      -0.51740300       3.50161530       0.00000000
Si      -2.56753206       2.74426944       0.02197710       0.00000000
Si       0.06776640       2.63167296      -2.77060762       0.00000000
Si       2.75915133       2.64998292       0.01590128       0.00000000
Si      -2.64929157      -0.08081143      -2.76817730       0.00000000
