10
Lattice="16.28999089631971 0.0 0.0 0.0 16.28999089631971 0.0 0.0 0.0 34.71893929493243" Properties=species:S:1:pos:R:3:initial_magmoms:R:1 pbc="T T T"
Si      -1.06741854      -2.02966788      -0.54706663       0.00000000
Si      -1.64475243       1.46824213      -0.84912157       0.00000000
Si       1.41946240       0.66883808      -1.87697635       0.00000000
Si       2.02092504      -1.61228550       1.27630364       0.00000000
Si       0.20215890       2.70826951      -1.58547597       0.00000000
Si       0.99270350      -3.04466520      -0.33646143       0.00000000
Si       2.24273294       2.10796672       1.74719688       0.00000000
Si       0.85873454      -1.14409461       3.28715629       0.00000000
Si       3.48280919       0.22469774       0.91678882       0.00000000
Si      -2.20941270      -2.61869799       1.35938611       0.00000000
