10
Lattice="16.28999089631971 0.0 0.0 0.0 16.28999089631971 0.0 0.0 0.0 34.71893929493243" Properties=species:S:1:pos:R:3:initial_magmoms:R:1 pbc="T T T"
Si      -0.07884360      -1.67023718       1.67952963       0.00000000
Si       2.30617530      -0.23838134      -0.50047379       0.00000000
Si      -1.69178166       0.19521773      -1.72258114       0.00000000
Si      -0.20321775       2.17455210       1.34494302       0.00000000
Si      -2.28674133      -0.99443024       2.04355791       0.00000000
Si      -1.08657558       2.40300306      -2.32901719       0.00000000
Si      -2.52928314       1.72191816       1.90527230       0.00000000
Si      -0.13489749      -3.67211528       0.44686772       0.00000000
Si      -0.79832403       3.80454579      -0.38166551       0.00000000
Si       3.61540979       1.01900466       1.09545258       0.00000000
