10
Lattice="16.28999089631971 0.0 0.0 0.0 16.28999089631971 0.0 0.0 0.0 34.71893929493243" Properties=species:S:1:pos:R:3:initial_magmoms:R:1 pbc="T T T"
Si      -1.39512447       0.24557175       1.84430580       0.00000000
Si       1.39066101      -1.84394655      -0.38468606       0.00000000
Si      -1.19770596       0.04028517      -2.10244126       0.00000000
Si       1.76334363       1.32833547       1.15294718       0.00000000
Si       3.31447743      -0.41907654       0.32406676       0.00000000
Si       0.68466870       0.80581743      -3.28840617       0.00000000
Si      -3.37132953       1.33019253       0.79464753       0.00000000
Si       1.46649096       2.84987034      -1.91485473       0.00000000
Si       0.64873296      -3.52178397       1.11597149       0.00000000
Si      -2.18880585      -1.79266563       2.78772407       0.00000000
