10
Lattice="16.28999089631971 0.0 0.0 0.0 16.28999089631971 0.0 0.0 0.0 34.71893929493243" Properties=species:S:1:pos:R:3:initial_magmoms:R:1 pbc="T T T"
Si      -0.19648998      -1.02236040       2.12605015       0.00000000
Si       2.30838164       0.65933775       0.48887766       0.00000000
Si      -1.55113380       1.74741201       0.82888042       0.00000000
Si      -1.92381642      -1.42487001      -0.70875282       0.00000000
Si       1.25221623      -0.20865861      -2.21579866       0.00000000
Si      -3.31447743       0.41907654      -0.32406676       0.00000000
Si       2.12648750       2.52696996      -0.92970428       0.00000000
Si       1.02081352      -3.06179184       1.83454978       0.00000000
Si       2.29347629       1.34423451       2.74467256       0.00000000
Si      -1.35156501      -2.95660731      -2.34790430       0.00000000
