10
Lattice="16.28999089631971 0.0 0.0 0.0 16.28999089631971 0.0 0.0 0.0 34.71893929493243" Properties=species:S:1:pos:R:3:initial_magmoms:R:1 pbc="T T T"
Si      -2.27730942      -0.45053253       0.27448809       0.00000000
Si       1.18566765       1.89941400       0.79398787       0.00000000
Si       1.00321965      -1.06802127       1.93891497       0.00000000
Si       0.18453312      -0.45607113      -2.40244779       0.00000000
Si       1.46772900       1.06292250       2.96017314       0.00000000
Si       3.23325942       1.34460918      -0.35725808       0.00000000
Si       2.62191690      -2.29487004       0.73472260       0.00000000
Si       0.66015225       1.74690702      -3.06564933       0.00000000
Si       1.53917694      -3.22584354      -1.10527805       0.00000000
Si      -2.97393498      -1.53883485      -1.71108916       0.00000000
