10
Lattice="16.28999089631971 0.0 0.0 0.0 16.28999089631971 0.0 0.0 0.0 34.71893929493243" Properties=species:S:1:pos:R:3:initial_magmoms:R:1 pbc="T T T"
Si       1.61869725      -1.22684877      -1.20419236       0.00000000
Si       0.46450935       2.13094377       1.02125817       0.00000000
Si      -1.70157195      -0.88695792       1.47972202       0.00000000
Si      -1.00321965       1.06802127      -1.93891497       0.00000000
Si       0.18244800       2.96743527      -1.14492710       0.00000000
Si      -3.56029353      -0.91500930       0.08176315       0.00000000
Si      -3.28052907       0.61748874      -1.66442688       0.00000000
Si      -1.63338201       2.71044423       1.98050828       0.00000000
Si       0.53595729      -2.15782227      -3.04419302       0.00000000
Si       2.57653133      -2.75812506       0.28847983       0.00000000
