10
Lattice="16.28999089631971 0.0 0.0 0.0 16.28999089631971 0.0 0.0 0.0 34.71893929493243" Properties=species:S:1:pos:R:3:initial_magmoms:R:1 pbc="T T T"
Si       1.64010393      -0.74526750      -1.52912710       0.00000000
Si      -0.57159981      -1.75484025       1.49666487       0.00000000
Si      -1.86082299       0.34531542      -1.46111266       0.00000000
Si       1.03986305       2.18810538       1.09882032       0.00000000
Si       0.71858189      -0.99816975       3.56417886       0.00000000
Si       1.10139689       0.22876047      -3.64132439       0.00000000
Si       0.61715384      -3.74453343       0.46915729       0.00000000
Si      -1.21549464      -0.12360852      -3.68486196       0.00000000
Si       2.29987826       2.99804418      -0.92900990       0.00000000
Si       1.94788394      -3.07804437      -1.47121587       0.00000000
