10
Lattice="16.28999089631971 0.0 0.0 0.0 16.28999089631971 0.0 0.0 0.0 34.71893929493243" Properties=species:S:1:pos:R:3:initial_magmoms:R:1 pbc="T T T"
Si       1.95159643       0.73285452       1.13802983       0.00000000
Si      -1.60984296       1.75107726      -0.29768039       0.00000000
Si      -0.83930967      -2.04525837       0.94236073       0.00000000
Si       0.33721929       0.11350872      -2.43237557       0.00000000
Si      -0.58383360      -2.06426880      -2.41709923       0.00000000
Si      -2.06208594      -0.64809765       2.42621430       0.00000000
Si       0.63479640       2.09745153       2.44778866       0.00000000
Si      -3.30392151       0.70143111       0.92777182       0.00000000
Si      -0.62415135       3.46559976       0.94257598       0.00000000
Si       2.95239050       2.47335957       0.00034927       0.00000000
