10
Lattice="16.28999089631971 0.0 0.0 0.0 16.28999089631971 0.0 0.0 0.0 34.71893929493243" Properties=species:S:1:pos:R:3:initial_magmoms:R:1 pbc="T T T"
Si      -0.58785723      -1.97649828       1.12826200       0.00000000
Si       0.06333552       1.68884946       1.63585318       0.00000000
Si       2.09789136      -0.57950046      -0.95925011       0.00000000
Si      -1.81951155       0.85125024      -1.39823662       0.00000000
Si       0.86315823       3.38235786       0.22456222       0.00000000
Si       1.81583001       0.25699104      -3.12543538       0.00000000
Si      -0.06818994      -3.59740215      -0.50078626       0.00000000
Si      -3.26806722       1.56973698       0.26716239       0.00000000
Si       1.63338201      -2.71044423      -1.98050828       0.00000000
Si      -2.21213313       1.90731465       2.33488469       0.00000000
