10
Lattice="16.28999089631971 0.0 0.0 0.0 16.28999089631971 0.0 0.0 0.0 34.71893929493243" Properties=species:S:1:pos:R:3:initial_magmoms:R:1 pbc="T T T"
Si       0.92105289       2.17777752      -0.01527634       0.00000000
Si      -2.10769794      -0.16021215      -1.17002891       0.00000000
Si       1.88961461      -1.53378495      -0.41881480       0.00000000
Si      -2.15585118      -0.89788851       2.03161459       0.00000000
Si       0.58383360       2.06426880       2.41709923       0.00000000
Si      -0.25547607       0.01901043       3.35945995       0.00000000
Si      -1.63149237      -1.12721913      -3.22275262       0.00000000
Si      -0.11486079       3.32443062      -1.86090147       0.00000000
Si      -3.47599278      -1.59296652       0.04579431       0.00000000
Si       3.14962982      -0.72384615      -2.44664502       0.00000000
