10
Lattice="16.28999089631971 0.0 0.0 0.0 16.28999089631971 0.0 0.0 0.0 34.71893929493243" Properties=species:S:1:pos:R:3:initial_magmoms:R:1 pbc="T T T"
Si      -1.33763706      -1.35527913       1.37362088       0.00000000
Si       1.35654975      -1.35547461      -1.35921251       0.00000000
Si      -1.35824391       1.36014984      -1.35730297       0.00000000
Si       1.34918667       1.36414089       1.39250800       0.00000000
Si      -2.64795579       0.10376730       2.67110309       0.00000000
Si       2.71290402      -2.71269225      -0.00343718       0.00000000
Si      -0.00078192      -2.71254564      -2.71668908       0.00000000
Si       2.71429383       0.00226431      -2.71668908       0.00000000
Si       2.71542897       2.71599766       0.00451346       0.00000000
Si      -2.71777473      -2.71423980       0.00170123       0.00000000
