10
Lattice="16.28999089631971 0.0 0.0 0.0 16.28999089631971 0.0 0.0 0.0 34.71893929493243" Properties=species:S:1:pos:R:3:initial_magmoms:R:1 pbc="T T T"
Si      -1.21948569       1.71521387       0.99508008       0.00000000
Si       2.34949271       0.16464303       0.08617246       0.00000000
Si      -1.29355632      -1.57130082       1.45677279       0.00000000
Si       0.09469377       1.86131399      -2.14472895       0.00000000
Si      -0.47755764       3.39305129      -0.50557748       0.00000000
Si      -0.01980864      -0.94237650       3.36763484       0.00000000
Si       2.80643698      -1.75627377       1.33886720       0.00000000
Si       2.46707230       1.75612946       2.03772512       0.00000000
Si      -1.24152606       0.51740300      -3.50161530       0.00000000
Si      -0.96899436      -3.72410577       0.10544148       0.00000000
