10
Lattice="16.28999089631971 0.0 0.0 0.0 16.28999089631971 0.0 0.0 0.0 34.71893929493243" Properties=species:S:1:pos:R:3:initial_magmoms:R:1 pbc="T T T"
Si      -2.20789773       0.67580694       0.36402828       0.00000000
Si      -0.05605389      -2.00187810      -1.23266191       0.00000000
Si       0.07884360       1.67023718      -1.67952963       0.00000000
Si       2.38501890       1.43185583      -2.18000342       0.00000000
Si       1.20133863      -2.31897924       2.58381963       0.00000000
Si       2.11248720      -2.80989468      -1.39650068       0.00000000
Si      -2.60765433       1.05314591       2.61930240       0.00000000
Si      -0.12437415       3.84478928      -0.33458660       0.00000000
Si       3.12662115      -0.82267758      -2.35988234       0.00000000
Si      -3.87182349      -0.09374895      -1.09333473       0.00000000
