10
Lattice="16.28999089631971 0.0 0.0 0.0 16.28999089631971 0.0 0.0 0.0 34.71893929493243" Properties=species:S:1:pos:R:3:initial_magmoms:R:1 pbc="T T T"
Si       1.35703845      -1.35681827      -1.35709466       0.00000000
Si       1.35729909       1.35757207       1.35754600       0.00000000
Si      -1.35735610      -1.35865904       1.35660859       0.00000000
Si      -1.35782851       1.35790276      -1.35719881       0.00000000
Si      -0.00070047      -2.71390559      -2.71471010       0.00000000
Si       2.71459818      -2.71411736      -0.00010416       0.00000000
Si       2.71507059      -0.00057833      -2.71411988       0.00000000
Si      -2.71577108      -0.00080512      -2.71346022       0.00000000
Si      -0.00084708       2.71420653      -2.71512673       0.00000000
Si       0.00014661       2.71493958       2.71474482       0.00000000
