10
Lattice="16.28999089631971 0.0 0.0 0.0 16.28999089631971 0.0 0.0 0.0 34.71893929493243" Properties=species:S:1:pos:R:3:initial_magmoms:R:1 pbc="T T T"
Si       1.35707103      -1.35819504      -1.36605215       0.00000000
Si      -1.35705311       1.35948195      -1.36483699       0.00000000
Si      -1.36028993      -1.35614250       1.39219552       0.00000000
Si       1.36215351       1.36207206       1.39816719       0.00000000
Si      -2.71489859       2.71472850      -0.00951299       0.00000000
Si      -2.71709774      -2.71254564      -0.00104157       0.00000000
Si       2.71588509       2.71441899      -0.00225673       0.00000000
Si       2.71754667      -2.71363707       0.00003472       0.00000000
Si      -2.71454310       0.00063531      -2.72220939       0.00000000
Si       0.00048870      -2.71487511      -2.72262602       0.00000000
