10
Lattice="16.28999089631971 0.0 0.0 0.0 16.28999089631971 0.0 0.0 0.0 34.71893929493243" Properties=species:S:1:pos:R:3:initial_magmoms:R:1 pbc="T T T"
Si      -1.70269596      -0.92929563      -1.20003234       0.00000000
Si      -1.27645182       1.39988115       1.27227277       0.00000000
Si       1.43482320      -1.33385778       1.22412105       0.00000000
Si       0.95866650       1.57722128      -1.39656560       0.00000000
Si      -0.29040183      -1.86217506      -2.83571404       0.00000000
Si       2.63218707       2.55535758      -0.06490709       0.00000000
Si      -2.64584298       0.03140712       2.58847891       0.00000000
Si      -3.29927723       0.85393809      -1.45266963       0.00000000
Si       0.07275114      -2.68592778       2.58382657       0.00000000
Si      -2.59302102       2.69402295      -0.11445452       0.00000000
