10
Lattice="16.28999089631971 0.0 0.0 0.0 16.28999089631971 0.0 0.0 0.0 34.71893929493243" Properties=species:S:1:pos:R:3:initial_magmoms:R:1 pbc="T T T"
Si       1.35733167       1.35571896      -1.35674747       0.00000000
Si      -1.35843939       1.35457866       1.35813623       0.00000000
Si      -1.35778779      -1.35925389      -1.35622668       0.00000000
Si       1.35749457      -1.36062225       1.36362182       0.00000000
Si      -2.71462261       2.71117728      -0.00003472       0.00000000
Si      -0.00022806       2.71301805      -2.71373797       0.00000000
Si      -2.71515856      -0.00216657      -2.71398100       0.00000000
Si       2.71586880       2.71368594       0.00020831       0.00000000
Si       2.71564074      -0.00239463      -2.71429347       0.00000000
Si      -2.71544363      -2.71555929       0.00104157       0.00000000
