10
Lattice="16.28999089631971 0.0 0.0 0.0 16.28999089631971 0.0 0.0 0.0 34.71893929493243" Properties=species:S:1:pos:R:3:initial_magmoms:R:1 pbc="T T T"
Si       0.45694427      -1.92091680       1.25269475       0.00000000
Si      -2.34949271      -0.16464303      -0.08617246       0.00000000
Si       0.11757959       1.59148643       1.95155267       0.00000000
Si       1.13198070      -1.35839052      -2.08799818       0.00000000
Si      -2.25479894       1.69667096      -2.23090141       0.00000000
Si      -0.50654407      -3.74990913       0.16446371       0.00000000
Si       2.49134862       1.61045288       2.49302955       0.00000000
Si       2.80584336      -2.12833737       1.67223865       0.00000000
Si       3.74453832      -0.00860112       1.24127221       0.00000000
Si      -3.56897840       1.55057084       0.90890762       0.00000000
