10
Lattice="16.28999089631971 0.0 0.0 0.0 16.28999089631971 0.0 0.0 0.0 34.71893929493243" Properties=species:S:1:pos:R:3:initial_magmoms:R:1 pbc="T T T"
Si      -0.96348834      -1.82899233      -1.08823104       0.00000000
Si      -0.45694427       1.92091680      -1.25269475       0.00000000
Si      -0.76612359      -0.20110005       2.23937284       0.00000000
Si       2.34889908      -0.20742057       0.41954390       0.00000000
Si       0.83464584      -3.30801030      -0.45190197       0.00000000
Si       0.67503642       0.56252628      -3.34069292       0.00000000
Si      -2.80643698       1.75627377      -1.33886720       0.00000000
Si      -2.82624562       0.81389727       2.02876763       0.00000000
Si      -0.33936468       3.51240323       0.69885792       0.00000000
Si       3.28759404       1.91231568      -0.01142254       0.00000000
