10
Lattice="16.28999089631971 0.0 0.0 0.0 16.28999089631971 0.0 0.0 0.0 34.2284985734139" Properties=species:S:1:pos:R:3:initial_magmoms:R:1 pbc="T T T"
Si      -1.87435998       1.29125715       0.46160579       0.00000000
Si      -0.69831972      -2.05439838      -0.84284302       0.00000000
Si       0.06467130      -0.22670925       2.33633593       0.00000000
Si       2.07821304       1.33173617      -0.95559176       0.00000000
Si       2.34305586      -0.60957312       2.09451146       0.00000000
Si      -0.54424890       3.21728086       0.32352795       0.00000000
Si      -0.17669763      -1.21595208      -3.16049018       0.00000000
Si      -3.13022124       0.83936603      -1.41185790       0.00000000
Si       0.10502163      -3.42264435       1.20248206       0.00000000
Si       3.59536590       0.77089428       0.77907529       0.00000000
