10
Lattice="16.28999089631971 0.0 0.0 0.0 16.28999089631971 0.0 0.0 0.0 34.2284985734139" Properties=species:S:1:pos:R:3:initial_magmoms:R:1 pbc="T T T"
Si      -0.00312768      -1.86706925      -1.42376942       0.00000000
Si       0.75872304       1.63437570      -1.51286625       0.00000000
Si       1.75669731      -0.57165031       1.51337968       0.00000000
Si      -1.92531510       1.00699893       0.99930157       0.00000000
Si       2.27525688      -2.24993312      -1.66559390       0.00000000
Si      -1.07080686       1.60976151       3.11712265       0.00000000
Si      -3.57083316      -0.67963998       0.83277984       0.00000000
Si       0.11051136       3.69913320      -0.56014969       0.00000000
Si       2.90014128       1.33621983       2.02064631       0.00000000
Si      -2.23515090       3.07146321      -0.16498146       0.00000000
