10
Lattice="16.28999089631971 0.0 0.0 0.0 16.28999089631971 0.0 0.0 0.0 34.2284985734139" Properties=species:S:1:pos:R:3:initial_magmoms:R:1 pbc="T T T"
Si      -1.21959972      -1.29815336       1.58327915       0.00000000
Si      -1.45639116       1.54450377      -1.14727146       0.00000000
Si       1.36925595       1.34082990       1.57909642       0.00000000
Si       0.74085291      -1.11065057      -2.09964573       0.00000000
Si      -0.10893123       2.42434296      -2.86855515       0.00000000
Si      -2.06922096      -3.14549216       0.36847756       0.00000000
Si       2.93576751       2.52915282       0.32346176       0.00000000
Si      -2.47731804       2.96624610       0.46548289       0.00000000
Si       0.09739791      -2.59934055       3.02505961       0.00000000
Si      -2.64368781       0.12057858       2.99565047       0.00000000
