10
Lattice="16.28999089631971 0.0 0.0 0.0 16.28999089631971 0.0 0.0 0.0 34.2284985734139" Properties=species:S:1:pos:R:3:initial_magmoms:R:1 pbc="T T T"
Si       0.64821168      -2.06475750      -0.95271656       0.00000000
Si       0.53923158       1.62243513      -1.65450386       0.00000000
Si       1.05262722       0.71754192       2.07787640       0.00000000
Si      -2.34566226      -0.62766999       0.39516824       0.00000000
Si       3.15258741       0.69322095       0.53307493       0.00000000
Si      -0.72255924      -2.12221233      -2.87642771       0.00000000
Si      -2.03582646      -2.69213427       1.55945127       0.00000000
Si      -0.11051136      -3.69913320       0.56014969       0.00000000
Si       1.00998000      -1.14997626       3.48446310       0.00000000
Si      -0.29339919       2.44309275       3.03179096       0.00000000
