10
Lattice="16.28999089631971 0.0 0.0 0.0 16.28999089631971 0.0 0.0 0.0 34.2284985734139" Properties=species:S:1:pos:R:3:initial_magmoms:R:1 pbc="T T T"
Si      -1.44428769       1.12829427      -1.42578890       0.00000000
Si       1.02454326       1.47872475       1.59655297       0.00000000
Si      -1.59083253      -1.06701129       1.51909725       0.00000000
Si       0.80889624      -1.84590135      -1.57037016       0.00000000
Si       1.68205653       1.94274540      -1.77238688       0.00000000
Si      -2.30927040      -0.62462376      -2.75166477       0.00000000
Si       2.52975555      -2.68705179      -0.15625318       0.00000000
Si       1.79607024       3.24599427       0.32389047       0.00000000
Si      -1.09393866      -3.43372023      -1.02853273       0.00000000
Si       2.43594144       0.18972963       2.87364292       0.00000000
