10
Lattice="16.28999089631971 0.0 0.0 0.0 16.28999089631971 0.0 0.0 0.0 34.2284985734139" Properties=species:S:1:pos:R:3:initial_magmoms:R:1 pbc="T T T"
Si       1.35729909      -1.35420399       1.35835873       0.00000000
Si      -1.35729909      -1.35568638      -1.35842718       0.00000000
Si       1.35788553       1.35921976      -1.35829027       0.00000000
Si      -1.35594702       1.35922131       1.36037821       0.00000000
Si      -0.00045612      -2.71300176      -2.71476642       0.00000000
Si       2.71357191      -2.71490769      -0.00106108       0.00000000
Si      -2.71619460      -2.71249677      -0.00071880       0.00000000
Si       2.71239903       2.71752291      -0.00088994       0.00000000
Si      -2.71502172       0.00201996      -2.71504025       0.00000000
Si       2.71518462       0.00213399      -2.71493757       0.00000000
