10
Lattice="16.28999089631971 0.0 0.0 0.0 16.28999089631971 0.0 0.0 0.0 34.2284985734139" Properties=species:S:1:pos:R:3:initial_magmoms:R:1 pbc="T T T"
Si      -1.35039213      -1.33569855      -1.37331659       0.00000000
Si      -1.42208442       1.31861034       1.35007542       0.00000000
Si       1.36492281       1.37953494      -1.36893534       0.00000000
Si       1.23268059      -1.50083028       1.48401161       0.00000000
Si       2.01723957       0.48941676       2.78996648       0.00000000
Si       0.30382479       2.39102991       2.59281022       0.00000000
Si      -2.69110800      -2.69826583      -0.00893364       0.00000000
Si       0.00171045      -2.69311004      -2.72921086       0.00000000
Si       2.73336426      -2.70115567       0.02474722       0.00000000
Si      -2.71077003       0.01816335      -2.72948469       0.00000000
