10
Lattice="16.28999089631971 0.0 0.0 0.0 16.28999089631971 0.0 0.0 0.0 34.2284985734139" Properties=species:S:1:pos:R:3:initial_magmoms:R:1 pbc="T T T"
Si       1.34881200       1.36161594       1.31937244       0.00000000
Si       1.35394335      -1.35801585      -1.35983055       0.00000000
Si      -1.36111095       1.35653346      -1.36061781       0.00000000
Si      -1.36492281      -1.37953494       1.36893534       0.00000000
Si      -0.01413972       2.66154165       2.61985074       0.00000000
Si       2.49041520       0.05321943       2.82768630       0.00000000
Si       2.71068858       2.71614573      -0.00438125       0.00000000
Si       2.71239903      -2.71635750       0.00349131       0.00000000
Si       2.71176372      -0.00042354      -2.71726511       0.00000000
Si      -2.71531494      -2.71523349      -0.00438125       0.00000000
