10
Lattice="16.28999089631971 0.0 0.0 0.0 16.28999089631971 0.0 0.0 0.0 34.2284985734139" Properties=species:S:1:pos:R:3:initial_magmoms:R:1 pbc="T T T"
Si       1.23792597       0.97539633       1.73329791       0.00000000
Si      -0.18500553       1.34635221      -1.92316350       0.00000000
Si       1.06989462      -2.10320190      -0.26373073       0.00000000
Si      -2.11621761       0.38424852       1.15394602       0.00000000
Si       0.49713822      -0.54496566       3.34152481       0.00000000
Si       0.60119874      -0.16578333      -3.61015022       0.00000000
Si      -2.40655428       2.35296018      -1.48466196       0.00000000
Si      -1.62761535      -2.96925975      -1.56420903       0.00000000
Si       0.32733126       3.13556436       2.05638089       0.00000000
Si       3.38413347      -1.63224171       0.29032629       0.00000000
