10
Lattice="16.28999089631971 0.0 0.0 0.0 16.28999089631971 0.0 0.0 0.0 34.2284985734139" Properties=species:S:1:pos:R:3:initial_magmoms:R:1 pbc="T T T"
Si       0.19056042      -2.25383553      -0.44791438       0.00000000
Si      -1.90684224       0.66280752       1.15668430       0.00000000
Si       2.06770599      -0.23869737       1.16469377       0.00000000
Si       1.36686132       1.37710773      -1.53241074       0.00000000
Si       2.57399919      -2.10838212      -0.33793816       0.00000000
Si      -1.00867680      -2.99501424       1.64043594       0.00000000
Si       1.54655631       3.24146565      -0.10809366       0.00000000
Si       2.37807936       2.02092111       1.79987237       0.00000000
Si      -1.82671173       2.97215937       1.28706072       0.00000000
Si       3.32939907      -0.25708878      -1.66713418       0.00000000
