10
Lattice="16.28999089631971 0.0 0.0 0.0 16.28999089631971 0.0 0.0 0.0 34.2284985734139" Properties=species:S:1:pos:R:3:initial_magmoms:R:1 pbc="T T T"
Si      -1.35669163      -1.35739683      -1.35678421       0.00000000
Si       1.35707429      -1.35770634       1.35822181       0.00000000
Si      -1.35801305       1.35777150       1.35767415       0.00000000
Si       1.35845894       1.35876519      -1.35736610       0.00000000
Si       2.71248374      -0.00100998       2.71521140       0.00000000
Si      -0.00077378       2.71339272       2.71486911       0.00000000
Si       2.71456886      -2.71479366       0.00023960       0.00000000
Si      -2.71517226      -2.71485882       0.00003423       0.00000000
Si      -2.71549806       2.71471221       0.00054766       0.00000000
Si       2.71531820       2.71523349       0.00041074       0.00000000
