10
Lattice="16.28999089631971 0.0 0.0 0.0 16.28999089631971 0.0 0.0 0.0 34.2284985734139" Properties=species:S:1:pos:R:3:initial_magmoms:R:1 pbc="T T T"
Si       1.35689184      -1.35678822      -1.35743456       0.00000000
Si       1.35769005       1.35705641       1.35685267       0.00000000
Si      -1.35759231       1.35711831      -1.35770838       0.00000000
Si      -1.35883035      -1.35901995       1.35661307       0.00000000
Si       2.71164549       0.00104489       2.71548522       0.00000000
Si      -0.00035838       2.71392707      -2.71510871       0.00000000
Si       2.71435298       0.00038523      -2.71469797       0.00000000
Si       2.71473968      -2.71454343      -0.00017114       0.00000000
Si      -2.71536381      -2.71478778      -0.00010269       0.00000000
Si       2.71542037       2.71479044      -0.00041074       0.00000000
