10
Lattice="16.28999089631971 0.0 0.0 0.0 16.28999089631971 0.0 0.0 0.0 34.2284985734139" Properties=species:S:1:pos:R:3:initial_magmoms:R:1 pbc="T T T"
Si       2.29636872      -0.37337429       0.06345967       0.00000000
Si       0.24669576       1.53791935      -1.77290030       0.00000000
Si      -1.62419445      -1.63507032      -0.54649251       0.00000000
Si      -0.57117627       0.63434889       2.26596210       0.00000000
Si       2.90574504       1.86326323       0.43127932       0.00000000
Si      -1.39066101      -3.05045955       1.32361678       0.00000000
Si      -0.93364506      -1.54949895       3.12920532       0.00000000
Si      -1.72307475       2.75649280      -1.62558076       0.00000000
Si      -2.47072059       2.04541801       2.35666767       0.00000000
Si      -3.88902573      -0.92608065      -0.13636641       0.00000000
