10
Lattice="16.28999089631971 0.0 0.0 0.0 16.28999089631971 0.0 0.0 0.0 34.2284985734139" Properties=species:S:1:pos:R:3:initial_magmoms:R:1 pbc="T T T"
Si      -0.60937632      -2.23663753      -0.36781965       0.00000000
Si      -0.73852344       0.98916138       2.05829768       0.00000000
Si       2.36093318      -0.58135752      -0.01317798       0.00000000
Si      -0.85287924       1.24714611      -1.94688386       0.00000000
Si       2.69603477       1.59404166      -0.86156602       0.00000000
Si       1.32723982       1.16991522      -2.82737825       0.00000000
Si       1.43630463       1.34082990       2.83826292       0.00000000
Si      -2.65904928      -0.32534388      -2.20417963       0.00000000
Si      -2.90574504      -1.86326323      -0.43127932       0.00000000
Si       2.46264794      -0.75976886       2.37364502       0.00000000
