10
Lattice="16.28999089631971 0.0 0.0 0.0 16.28999089631971 0.0 0.0 0.0 34.2284985734139" Properties=species:S:1:pos:R:3:initial_magmoms:R:1 pbc="T T T"
Si       0.47723184       1.79794359      -1.35592850       0.00000000
Si      -1.75488912       0.78876180       1.31601805       0.00000000
Si      -0.91639395      -1.52862102      -1.52203950       0.00000000
Si       1.37741724      -0.96435171       2.17553036       0.00000000
Si      -0.42875280      -2.53684170       1.91823459       0.00000000
Si       2.46666438       0.67468293      -2.00031457       0.00000000
Si       1.45826451       1.33789770       2.77172268       0.00000000
Si      -2.39852331      -1.31826825       2.06555413       0.00000000
Si      -0.30112065      -3.43131908      -0.28074230       0.00000000
Si      -3.11585346      -0.70991820      -1.58799785       0.00000000
