10
Lattice="16.28999089631971 0.0 0.0 0.0 16.28999089631971 0.0 0.0 0.0 34.2284985734139" Properties=species:S:1:pos:R:3:initial_magmoms:R:1 pbc="T T T"
Si      -2.19726036       0.20864232      -0.81860923       0.00000000
Si      -0.01329264      -2.09811942       1.09240314       0.00000000
Si       0.88705566       2.07757773       0.87108155       0.00000000
Si       1.55579274      -0.61758648      -1.74952223       0.00000000
Si      -2.72642472      -2.04735978      -1.20439885       0.00000000
Si      -3.33309690       0.91970082       1.15675276       0.00000000
Si      -1.08089037      -3.49904313      -0.42679539       0.00000000
Si       3.16193787       1.50729741       1.29839036       0.00000000
Si       2.13226326      -2.94990723       1.02890924       0.00000000
Si       3.32143326      -1.75816341      -0.61922811       0.00000000
