10
Lattice="16.28999089631971 0.0 0.0 0.0 16.28999089631971 0.0 0.0 0.0 34.2284985734139" Properties=species:S:1:pos:R:3:initial_magmoms:R:1 pbc="T T T"
Si       2.13975992       0.90495837      -0.28741686       0.00000000
Si      -1.32599364      -0.18489150      -1.92299235       0.00000000
Si      -1.14522351       1.67006709       1.20090754       0.00000000
Si      -0.23512171      -1.90115703       1.37235819       0.00000000
Si       1.59313268       2.81510748      -1.48825595       0.00000000
Si      -3.31542618       0.93836916      -1.27860628       0.00000000
Si      -2.33439351       0.47832327       2.84904490       0.00000000
Si       3.31048964      -0.60118245      -1.68448804       0.00000000
Si      -2.41524078      -1.82392614       2.25285258       0.00000000
Si       1.13367323      -1.47703059       3.33817042       0.00000000
