10
Lattice="16.28999089631971 0.0 0.0 0.0 16.28999089631971 0.0 0.0 0.0 34.2284985734139" Properties=species:S:1:pos:R:3:initial_magmoms:R:1 pbc="T T T"
Si      -0.48666212      -1.06288992       2.03320818       0.00000000
Si      -1.54382026       1.21674897      -1.34494115       0.00000000
Si       1.03274365       1.78026894       1.21925403       0.00000000
Si       1.08031045      -1.87569576      -1.13197131       0.00000000
Si       2.38504171      -0.00653229      -1.04989132       0.00000000
Si       1.54442884       1.28972817      -2.86554304       0.00000000
Si      -3.39237688      -0.24312825      -1.28524661       0.00000000
Si       1.67781136      -1.16898669       3.03220170       0.00000000
Si      -0.74131392       2.29627098       2.78640671       0.00000000
Si      -0.73657027       1.06580583      -3.54039250       0.00000000
