10
Lattice="16.28999089631971 0.0 0.0 0.0 16.28999089631971 0.0 0.0 0.0 34.51877397758722" Properties=species:S:1:pos:R:3:initial_magmoms:R:1 pbc="T T T"
Si       1.21642317       1.40225786      -1.45888989       0.00000000
Si      -1.31936687       1.37757851       1.40625422       0.00000000
Si       1.39773087      -1.33072263       1.39284366       0.00000000
Si      -1.25593000      -1.44835272      -1.48256978       0.00000000
Si      -0.75506431       2.30228036      -2.56908332       0.00000000
Si      -2.28494033       0.38107034      -2.69048592       0.00000000
Si      -2.67314732       0.02157936       2.76588044       0.00000000
Si       2.72429073       2.71572056      -0.14710184       0.00000000
Si       2.91939606      -2.52347643      -0.05744618       0.00000000
Si      -2.77254890       2.68817417       0.08577230       0.00000000
