10
Lattice="16.28999089631971 0.0 0.0 0.0 16.28999089631971 0.0 0.0 0.0 34.51877397758722" Properties=species:S:1:pos:R:3:initial_magmoms:R:1 pbc="T T T"
Si       1.62344511       0.94833701      -1.41199611       0.00000000
Si      -1.35558864      -1.16260590      -1.53381293       0.00000000
Si      -1.48779828       1.24290908       1.34462781       0.00000000
Si       1.22916195      -1.50179058       1.35126578       0.00000000
Si       0.38991744      -1.59709671      -3.07728625       0.00000000
Si       2.58229080       2.55089834       0.06331782       0.00000000
Si      -0.12851181       2.59103690       2.72243854       0.00000000
Si       2.59502958      -0.12938495       2.72112683       0.00000000
Si      -2.67540444      -2.67178059      -0.10240690       0.00000000
Si       2.49878826      -2.93268123      -0.14730205       0.00000000
