10
Lattice="16.28999089631971 0.0 0.0 0.0 16.28999089631971 0.0 0.0 0.0 34.51877397758722" Properties=species:S:1:pos:R:3:initial_magmoms:R:1 pbc="T T T"
Si      -0.46885878       2.29664565       0.35198813       0.00000000
Si      -0.27010449      -0.83297123       2.20488792       0.00000000
Si       2.27224323      -0.43736206      -0.59897010       0.00000000
Si      -1.35681039      -0.87177238      -1.81845003       0.00000000
Si       1.98376362      -0.82674845      -2.88608179       0.00000000
Si      -0.82676637      -3.06565487       1.72507669       0.00000000
Si       0.09150093       2.50862742       2.61552348       0.00000000
Si      -1.48172211       0.86517819       3.31228533       0.00000000
Si       0.10564065      -2.24213021      -3.03879293       0.00000000
Si       0.50020074       3.48320925      -1.38133855       0.00000000
