10
Lattice="16.28999089631971 0.0 0.0 0.0 16.28999089631971 0.0 0.0 0.0 34.51877397758722" Properties=species:S:1:pos:R:3:initial_magmoms:R:1 pbc="T T T"
Si      -1.64470894      -1.62960436       0.54146179       0.00000000
Si       1.39947390       0.48799953       1.86052844       0.00000000
Si       1.40906871      -0.36709515      -1.91292797       0.00000000
Si      -1.20157158       2.07370071      -0.20714728       0.00000000
Si       1.59909156       1.94413005      -2.48811462       0.00000000
Si      -0.16467398       1.41276654       3.38166810       0.00000000
Si      -1.15669263      -3.39098246      -0.95827622       0.00000000
Si      -1.57292493       2.75112036       2.04161403       0.00000000
Si      -1.36776542      -2.28642272       2.77099613       0.00000000
Si      -0.04629618       3.48565275      -1.68500037       0.00000000
