10
Lattice="16.28999089631971 0.0 0.0 0.0 16.28999089631971 0.0 0.0 0.0 34.51877397758722" Properties=species:S:1:pos:R:3:initial_magmoms:R:1 pbc="T T T"
Si       0.32623983      -2.36146356      -0.18353642       0.00000000
Si       1.27047339       0.75357540       1.88234432       0.00000000
Si      -2.23111098       0.79770501       0.39627575       0.00000000
Si       0.77998149       1.35933534      -1.85983806       0.00000000
Si       1.36332639      -0.48672891      -3.25850505       0.00000000
Si      -1.70691507       3.08144898       0.97229085       0.00000000
Si       0.29300823       2.88735363       2.26215460       0.00000000
Si       2.67098985      -2.65180023      -0.42195773       0.00000000
Si      -0.76074300      -1.47737268      -3.43575905       0.00000000
Si      -3.17835819      -0.60277887       2.10623321       0.00000000
