10
Lattice="16.28999089631971 0.0 0.0 0.0 16.28999089631971 0.0 0.0 0.0 34.51877397758722" Properties=species:S:1:pos:R:3:initial_magmoms:R:1 pbc="T T T"
Si       1.11747771      -1.61106471       1.34757917       0.00000000
Si      -2.07704016      -0.86407047      -0.96352308       0.00000000
Si       1.02960945      -0.54498195      -2.19197789       0.00000000
Si      -1.66851954       1.06217316       1.54295554       0.00000000
Si      -0.97384878       0.47241000      -2.58783941       0.00000000
Si      -0.53465409       2.42606970      -1.36114506       0.00000000
Si      -3.43025861       0.95330709      -0.17666718       0.00000000
Si       2.34981621      -0.10076994       2.75009987       0.00000000
Si      -0.41099670      -2.81711115       2.76382109       0.00000000
Si      -0.46180521       2.74416453       2.83283106       0.00000000
