10
Lattice="16.28999089631971 0.0 0.0 0.0 16.28999089631971 0.0 0.0 0.0 34.51877397758722" Properties=species:S:1:pos:R:3:initial_magmoms:R:1 pbc="T T T"
Si      -1.56414788       0.92476701       1.52113966       0.00000000
Si       1.00887228      -1.88430991       1.04257111       0.00000000
Si       1.86007365       1.42084638      -0.42213032       0.00000000
Si      -1.39947390      -0.48799953      -1.86052844       0.00000000
Si      -2.60104548       1.58570118      -2.06767572       0.00000000
Si      -2.97239883       2.26312083       0.18108559       0.00000000
Si      -0.61975305      -3.54682889       1.34357499       0.00000000
Si       2.36568267      -1.01253753       2.86102114       0.00000000
Si      -2.96306629      -0.88865208       2.29736377       0.00000000
Si       0.00959481      -0.85509468      -3.77345640       0.00000000
