10
Lattice="16.28999089631971 0.0 0.0 0.0 16.28999089631971 0.0 0.0 0.0 34.51877397758722" Properties=species:S:1:pos:R:3:initial_magmoms:R:1 pbc="T T T"
Si       1.70246790       1.00074357      -1.49350534       0.00000000
Si      -1.37801997       1.29096621       1.60855506       0.00000000
Si      -1.97185563      -0.78219693      -1.33958604       0.00000000
Si       1.31962032      -1.43904231       1.59306302       0.00000000
Si       2.58458769       2.54277126       0.12265908       0.00000000
Si      -2.58960501       2.80367190       0.16755422       0.00000000
Si      -1.23315300       0.31089465      -3.65106799       0.00000000
Si      -2.83551885      -2.68584633       0.14690853       0.00000000
Si      -3.57145218       1.14292269      -1.20354747       0.00000000
Si      -0.04083903       2.63158434       2.99650741       0.00000000
