10
Lattice="16.28999089631971 0.0 0.0 0.0 16.28999089631971 0.0 0.0 0.0 34.51877397758722" Properties=species:S:1:pos:R:3:initial_magmoms:R:1 pbc="T T T"
Si       1.45572327       1.04618585      -1.46349328       0.00000000
Si       1.77787431      -1.06769547       1.17923102       0.00000000
Si      -1.19184156      -1.68634080      -1.40729668       0.00000000
Si      -1.09947726       1.73944361       1.60205171       0.00000000
Si       3.33228240       0.72306423       0.94457226       0.00000000
Si       2.37490281       2.69548091      -0.02588909       0.00000000
Si       0.04194675       2.25105061      -2.81904629       0.00000000
Si       0.68419629      -0.98824914       3.40848920       0.00000000
Si      -1.26029214       0.40075029       3.56233947       0.00000000
Si      -2.91779964       2.45555527       0.11677708       0.00000000
