10
Lattice="16.28999089631971 0.0 0.0 0.0 16.28999089631971 0.0 0.0 0.0 34.51877397758722" Properties=species:S:1:pos:R:3:initial_magmoms:R:1 pbc="T T T"
Si       0.55666188       2.23268364       0.47981123       0.00000000
Si      -0.80746272      -0.95674428       2.01872807       0.00000000
Si      -2.18417949       0.43176645      -0.91133066       0.00000000
Si       1.90876446      -0.92486475      -1.44312719       0.00000000
Si       0.82676637       3.06565487      -1.72507669       0.00000000
Si      -3.42494644      -1.49545458      -0.35816700       0.00000000
Si       0.90285696      -2.28299463       2.89768010       0.00000000
Si      -2.15866935       0.53136351      -3.24252285       0.00000000
Si       3.76833312       0.78548751       0.96455864       0.00000000
Si      -3.13071971      -1.51361793       1.94924174       0.00000000
