10
Lattice="16.28999089631971 0.0 0.0 0.0 16.28999089631971 0.0 0.0 0.0 34.51877397758722" Properties=species:S:1:pos:R:3:initial_magmoms:R:1 pbc="T T T"
Si       1.37287233      -1.32059772       1.31108245       0.00000000
Si      -1.36311462       1.40717907       1.29022620       0.00000000
Si       1.35477414       1.23110046      -1.50682959       0.00000000
Si      -0.95884569      -1.60256133      -1.47531393       0.00000000
Si      -1.90731465       0.23944671      -2.79189523       0.00000000
Si      -2.58229080      -2.55089834      -0.06331782       0.00000000
Si      -0.39529314       2.26758429      -2.81112220       0.00000000
Si       0.01273878      -2.68028330       2.65780901       0.00000000
Si      -2.71080261       0.04013856       2.65912072       0.00000000
Si       2.63044404      -2.75078316      -0.05954147       0.00000000
