10
Lattice="16.28999089631971 0.0 0.0 0.0 16.28999089631971 0.0 0.0 0.0 34.51877397758722" Properties=species:S:1:pos:R:3:initial_magmoms:R:1 pbc="T T T"
Si       1.33775109       1.35102315       1.36311263       0.00000000
Si      -1.35956340       1.35457437      -1.35665761       0.00000000
Si       1.35498591      -1.35888255      -1.35855615       0.00000000
Si      -1.36578618      -1.35006966       1.37108647       0.00000000
Si      -2.67138081       0.15163346       2.70047423       0.00000000
Si       2.60485245      -0.01155294       2.79588418       0.00000000
Si       2.71366965      -0.00103260      -2.71500665       0.00000000
Si      -0.00148239       2.71408076      -2.71511020       0.00000000
Si       2.71417464       2.71675232       0.00255439       0.00000000
Si       2.71458189      -2.71652373       0.00134623       0.00000000
