10
Lattice="16.28999089631971 0.0 0.0 0.0 16.28999089631971 0.0 0.0 0.0 34.51877397758722" Properties=species:S:1:pos:R:3:initial_magmoms:R:1 pbc="T T T"
Si       0.44948997       1.47683511      -1.77623355       0.00000000
Si      -1.29823155      -1.64561971      -1.16966931       0.00000000
Si       2.24617923      -0.78792612       0.35678625       0.00000000
Si      -1.34762283       1.15738821       1.69204221       0.00000000
Si      -3.32333919      -0.84409730      -0.29844949       0.00000000
Si       2.70959715       1.89879498      -1.52666267       0.00000000
Si      -3.03485958      -0.45471091       1.98866220       0.00000000
Si       3.32364870      -0.35153657      -1.74444174       0.00000000
Si       0.32645160       0.18896400      -3.81701912       0.00000000
Si       3.34192608       0.65757843       1.93225849       0.00000000
