10
Lattice="16.28999089631971 0.0 0.0 0.0 16.28999089631971 0.0 0.0 0.0 34.51877397758722" Properties=species:S:1:pos:R:3:initial_magmoms:R:1 pbc="T T T"
Si      -2.04283116       0.62682291      -0.98537347       0.00000000
Si       1.21161762      -1.69814942      -1.10739741       0.00000000
Si       1.57322304       1.64344923      -0.69676184       0.00000000
Si      -0.08966016      -1.10847423       2.24958976       0.00000000
Si       1.01286333       1.43146746      -2.96029719       0.00000000
Si       3.20163660      -1.35227037       0.14453019       0.00000000
Si      -1.29412647       1.99384713      -2.79153481       0.00000000
Si      -2.89419543      -1.45026286      -1.83108391       0.00000000
Si       3.59701119       0.95498496       0.21318807       0.00000000
Si       1.48172211      -0.86517819      -3.31228533       0.00000000
