10
Lattice="16.28999089631971 0.0 0.0 0.0 16.28999089631971 0.0 0.0 0.0 34.51877397758722" Properties=species:S:1:pos:R:3:initial_magmoms:R:1 pbc="T T T"
Si       1.26381078      -0.89891056      -1.78241241       0.00000000
Si       1.72235799       0.87551257       1.38891685       0.00000000
Si      -0.99158859      -1.85728384       1.23783844       0.00000000
Si      -1.86693174       2.02373439      -0.02685562       0.00000000
Si       0.46703430       1.80344472      -2.82287788       0.00000000
Si      -3.10045941      -0.52169932      -1.69214576       0.00000000
Si      -2.26121490      -0.42639319       2.73640627       0.00000000
Si       0.46478628       2.30569800       2.75954076       0.00000000
Si       3.16912176       2.18383251       0.01139120       0.00000000
Si       0.21659184      -0.34625291      -3.82975656       0.00000000
