10
Lattice="16.28999089631971 0.0 0.0 0.0 16.28999089631971 0.0 0.0 0.0 34.51877397758722" Properties=species:S:1:pos:R:3:initial_magmoms:R:1 pbc="T T T"
Si      -0.95348628      -2.21358524      -0.25878739       0.00000000
Si      -1.41195204       1.31315808       1.47806021       0.00000000
Si       1.61083665      -1.10340152       1.44809790       0.00000000
Si       0.08966016       1.10847423      -2.24958976       0.00000000
Si       1.30127778      -0.58967519      -3.35698716       0.00000000
Si       3.35634273      -1.53789233      -0.09537543       0.00000000
Si       0.09591552       2.62662078       2.78984826       0.00000000
Si       0.29102085      -2.61257621       2.87950392       0.00000000
Si       3.29129676      -0.24379614      -2.10505957       0.00000000
Si      -2.62837521      -0.08909978       2.93695010       0.00000000
