10
Lattice="16.28999089631971 0.0 0.0 0.0 16.28999089631971 0.0 0.0 0.0 34.51877397758722" Properties=species:S:1:pos:R:3:initial_magmoms:R:1 pbc="T T T"
Si       1.35607734      -1.35438318      -1.35731347       0.00000000
Si      -1.35733167      -1.35622395       1.35641598       0.00000000
Si      -1.35581670       1.35891180      -1.35803836       0.00000000
Si       1.35788553       1.35920502       1.35603627       0.00000000
Si       0.01686015       2.68625358      -2.70668417       0.00000000
Si       0.00830790      -2.71344159      -2.70838939       0.00000000
Si       2.70358614       0.01987380      -2.72299775       0.00000000
Si       0.00034209      -2.71353933       2.71334974       0.00000000
Si       2.71446786      -2.71287144      -0.00093201       0.00000000
Si      -2.71466334       0.00166158       2.71400560       0.00000000
