10
Lattice="16.28999089631971 0.0 0.0 0.0 16.28999089631971 0.0 0.0 0.0 34.51877397758722" Properties=species:S:1:pos:R:3:initial_magmoms:R:1 pbc="T T T"
Si      -1.35532800       1.35909099      -1.36162832       0.00000000
Si       1.35881406      -1.35772263      -1.36173188       0.00000000
Si      -1.35386190      -1.34501643       1.38254671       0.00000000
Si       1.34426709       1.37828061       1.38630926       0.00000000
Si      -2.71712313      -2.71091664      -0.00069038       0.00000000
Si       2.71673217      -2.71147050      -0.00124268       0.00000000
Si      -2.71265967       2.71580364      -0.00189853       0.00000000
Si      -2.71393029       0.00105885      -2.71825141       0.00000000
Si       0.00107514      -2.71414206      -2.71890727       0.00000000
Si       0.00151497       2.71603170      -2.71832045       0.00000000
