10
Lattice="16.28999089631971 0.0 0.0 0.0 16.28999089631971 0.0 0.0 0.0 34.51877397758722" Properties=species:S:1:pos:R:3:initial_magmoms:R:1 pbc="T T T"
Si       1.36044490       1.35485559       1.38815601       0.00000000
Si      -1.35422563      -1.36454814       1.38832861       0.00000000
Si       1.30096034      -1.42021107      -1.40658560       0.00000000
Si      -1.30734301       1.45225350      -1.53520607       0.00000000
Si      -2.69243284       2.70589932       0.02582351       0.00000000
Si      -2.72196661      -2.70285309       0.02716629       0.00000000
Si       2.69951548       2.72728809       0.01947205       0.00000000
Si      -0.22397656      -2.59341687      -2.82777751       0.00000000
Si       2.72085538      -2.72684826       0.00709016       0.00000000
Si       0.00422369       2.70886410       2.74992241       0.00000000
