10
Lattice="16.28999089631971 0.0 0.0 0.0 16.28999089631971 0.0 0.0 0.0 34.51877397758722" Properties=species:S:1:pos:R:3:initial_magmoms:R:1 pbc="T T T"
Si      -0.85493178       1.95867702      -0.93728879       0.00000000
Si      -2.03971977      -1.01400363       0.69175662       0.00000000
Si       2.03326893      -0.79112385      -1.00781069       0.00000000
Si       0.58375215       1.49351607       1.91817482       0.00000000
Si       0.99771363      -2.66375709      -1.97309422       0.00000000
Si       1.21629285       2.87345826      -1.50550265       0.00000000
Si       2.49359175       1.08849780      -2.39843479       0.00000000
Si      -0.13769937      -3.80211858      -0.21888367       0.00000000
Si       1.75510089       3.30271605       0.83331819       0.00000000
Si      -2.31190938      -2.95367022      -0.86362569       0.00000000
