10
Lattice="16.28999089631971 0.0 0.0 0.0 16.28999089631971 0.0 0.0 0.0 34.51877397758722" Properties=species:S:1:pos:R:3:initial_magmoms:R:1 pbc="T T T"
Si      -0.88211979      -1.54202769      -1.61616442       0.00000000
Si      -1.26962631       1.43089065       1.49856782       0.00000000
Si       1.45233495      -1.26429948       1.48408719       0.00000000
Si       0.99158859       1.85728384      -1.23783844       0.00000000
Si      -2.58458769      -2.54277126      -0.12265908       0.00000000
Si      -2.10887082       1.33558452      -2.92998421       0.00000000
Si       2.71394658       2.73279641       0.15107840       0.00000000
Si      -2.49878826       2.93268123       0.14730205       0.00000000
Si       2.25539937       0.95837328      -3.02025085       0.00000000
Si       0.09062127      -2.62699056       2.86704812       0.00000000
