10
Lattice="16.28999089631971 0.0 0.0 0.0 16.28999089631971 0.0 0.0 0.0 34.51877397758722" Properties=species:S:1:pos:R:3:initial_magmoms:R:1 pbc="T T T"
Si       1.87084134      -1.38113136      -0.30414509       0.00000000
Si      -1.15336458      -0.26925741      -2.03771340       0.00000000
Si      -1.60075314      -1.16888895       1.36169736       0.00000000
Si       0.57603069       2.20634108       0.78865087       0.00000000
Si       0.95469174       1.65324280       3.09626672       0.00000000
Si      -1.68034608      -3.23322291       0.16517243       0.00000000
Si       3.50248032       0.13940982      -1.12693504       0.00000000
Si      -1.55277909      -2.60196912      -2.12307838       0.00000000
Si       2.78000253      -1.62448767       1.85062154       0.00000000
Si      -3.09785301       1.11974202      -1.88386314       0.00000000
