10
Lattice="16.28999089631971 0.0 0.0 0.0 16.28999089631971 0.0 0.0 0.0 34.51877397758722" Properties=species:S:1:pos:R:3:initial_magmoms:R:1 pbc="T T T"
Si      -1.87084134       1.38113136       0.30414509       0.00000000
Si       0.90916119      -0.24335631       2.15476663       0.00000000
Si       1.63163898       1.52054118      -0.82278996       0.00000000
Si      -0.32317731      -2.34848043      -0.67591249       0.00000000
Si       3.50186130      -0.00676035      -0.81191654       0.00000000
Si      -3.02420592       1.11187395      -1.73356832       0.00000000
Si       1.47983247      -2.57439015       2.21728017       0.00000000
Si       1.69029927      -3.40881282       0.00469456       0.00000000
Si       2.68811064       1.28583486       2.42031971       0.00000000
Si      -3.47159448       0.21224241       1.66584244       0.00000000
