10
Lattice="16.28999089631971 0.0 0.0 0.0 16.28999089631971 0.0 0.0 0.0 34.51877397758722" Properties=species:S:1:pos:R:3:initial_magmoms:R:1 pbc="T T T"
Si      -0.90916119       0.24335631      -2.15476663       0.00000000
Si       1.77894945       1.52919117       0.26555308       0.00000000
Si      -1.46276055       0.91715958       1.66021588       0.00000000
Si       0.57067128      -2.33103384       0.06251353       0.00000000
Si       0.04601925       0.62851707       3.43755403       0.00000000
Si       0.72247779       1.76389749      -2.97755659       0.00000000
Si       1.90636983       1.78592157       2.62011448       0.00000000
Si      -2.78000253       1.62448767      -1.85062154       0.00000000
Si      -1.23233850      -2.10512412      -2.83067912       0.00000000
Si       3.63470625       0.57290301      -0.79576174       0.00000000
