10
Lattice="16.28999089631971 0.0 0.0 0.0 16.28999089631971 0.0 0.0 0.0 34.51877397758722" Properties=species:S:1:pos:R:3:initial_magmoms:R:1 pbc="T T T"
Si       1.86035058       1.15740450      -0.81743954       0.00000000
Si      -0.66505554       1.06385103       1.97378460       0.00000000
Si      -1.50877980       0.28864251      -1.77733815       0.00000000
Si       0.11098377      -2.27706507       0.60024730       0.00000000
Si      -0.04601925      -0.62851707      -3.43755403       0.00000000
Si       1.73293020       0.90067410      -3.17200095       0.00000000
Si      -2.15067096      -2.93210226       0.83801274       0.00000000
Si       0.89221959      -2.32096662       2.83958497       0.00000000
Si      -0.38507931      -0.53600616       3.73251712       0.00000000
Si      -1.87133004       2.64921340      -2.19190885       0.00000000
