10
Lattice="16.28999089631971 0.0 0.0 0.0 16.28999089631971 0.0 0.0 0.0 34.51877397758722" Properties=species:S:1:pos:R:3:initial_magmoms:R:1 pbc="T T T"
Si      -1.22165226       1.79307518       0.76718018       0.00000000
Si      -0.01705563      -0.21046680      -2.32708445       0.00000000
Si       2.16044496       0.67442540       0.63925353       0.00000000
Si      -0.71713467      -1.77590322       1.85862990       0.00000000
Si      -1.15660629       0.49897899       2.77686432       0.00000000
Si       2.27357901      -0.93346587      -2.28124349       0.00000000
Si       0.48233061      -3.44810430       0.04570288       0.00000000
Si      -1.85956866      -1.71035226      -2.40768583       0.00000000
Si      -3.21167124       1.44719613      -0.48474741       0.00000000
Si       2.55355524      -2.53332306      -0.52251097       0.00000000
