10
Lattice="16.28999089631971 0.0 0.0 0.0 16.28999089631971 0.0 0.0 0.0 34.51877397758722" Properties=species:S:1:pos:R:3:initial_magmoms:R:1 pbc="T T T"
Si       0.85493178      -1.95867702       0.93728879       0.00000000
Si       2.07122463       0.91478124      -0.56821386       0.00000000
Si      -1.20989088      -0.29919843      -1.98638396       0.00000000
Si      -1.19946528       1.67220108       1.81292702       0.00000000
Si       1.43868393      -0.46516095       2.85546362       0.00000000
Si       2.61003267       1.34403903       1.77060698       0.00000000
Si      -0.48233061       3.44810430      -0.04570288       0.00000000
Si      -1.18478799      -2.97268065       1.62904541       0.00000000
Si      -3.18203973      -1.63530423       0.67080371       0.00000000
Si       3.34852353      -0.87017922      -1.46114600       0.00000000
