10
Lattice="16.28999089631971 0.0 0.0 0.0 16.28999089631971 0.0 0.0 0.0 34.51877397758722" Properties=species:S:1:pos:R:3:initial_magmoms:R:1 pbc="T T T"
Si      -1.59032754       0.16290311       1.74634027       0.00000000
Si      -1.47719349      -1.44498816      -1.17415675       0.00000000
Si       0.50266053       2.32981928      -0.31860846       0.00000000
Si       2.02033467      -1.09424817       0.76714566       0.00000000
Si      -1.19721726      -3.04484535       0.58457576       0.00000000
Si       0.91186533       3.05245997       1.98237978       0.00000000
Si      -1.33988508       2.31260075       2.75321895       0.00000000
Si       1.95668964       2.44357235      -2.23792241       0.00000000
Si      -0.54310860      -0.38975454       3.79368442       0.00000000
Si      -3.75077250      -0.51152229       1.10708674       0.00000000
