10
Lattice="16.28999089631971 0.0 0.0 0.0 16.28999089631971 0.0 0.0 0.0 34.51877397758722" Properties=species:S:1:pos:R:3:initial_magmoms:R:1 pbc="T T T"
Si       1.35378045       1.35599915      -1.35962623       0.00000000
Si       1.35641601      -1.35801833       1.36083439       0.00000000
Si      -1.36071999       1.35759557       1.36093794       0.00000000
Si      -1.36394541      -1.37502654      -1.37624012       0.00000000
Si      -0.09940158       2.66659481      -2.68010815       0.00000000
Si       2.71578476       2.71305389       0.00172594       0.00000000
Si       2.71214232      -2.71694787       0.00220920       0.00000000
Si      -2.71534752      -2.71510710       0.00131171       0.00000000
Si       2.71282650      -0.00024924       2.71797526       0.00000000
Si      -0.00172674       2.71438967       2.71818238       0.00000000
