10
Lattice="16.28999089631971 0.0 0.0 0.0 16.28999089631971 0.0 0.0 0.0 34.51877397758722" Properties=species:S:1:pos:R:3:initial_magmoms:R:1 pbc="T T T"
Si      -1.89092691       1.43172810      -0.38909584       0.00000000
Si      -0.50266053      -2.32981928       0.31860846       0.00000000
Si       1.45402911       0.11375307      -1.91931394       0.00000000
Si       0.40920480       0.72264069       2.30098824       0.00000000
Si       0.23179041       3.02990742       1.44298912       0.00000000
Si      -1.84254561      -0.01721853       3.07182741       0.00000000
Si      -2.09298807      -2.16691616       2.06494873       0.00000000
Si       0.35828226      -1.33175148      -3.49478619       0.00000000
Si      -2.88271098       1.87642881       1.73936747       0.00000000
Si       1.51767414      -3.42406745       1.08575412       0.00000000
