10
Lattice="16.28999089631971 0.0 0.0 0.0 16.28999089631971 0.0 0.0 0.0 34.51877397758722" Properties=species:S:1:pos:R:3:initial_magmoms:R:1 pbc="T T T"
Si      -1.36774098      -1.33830495      -1.36116232       0.00000000
Si      -1.35604476       1.35816246       1.36059276       0.00000000
Si       1.36012736      -1.35656604       1.36017853       0.00000000
Si       1.35422563       1.36454814      -1.38832861       0.00000000
Si      -2.71524978      -2.71256193       0.00452196       0.00000000
Si      -2.71246419       2.71769328       0.00300314       0.00000000
Si      -2.71344159       0.00102627       2.71787171       0.00000000
Si       0.00213399      -2.71425609       2.71814786       0.00000000
Si       2.71467053       2.71940373      -0.00017259       0.00000000
Si       0.00179190       2.71612944       2.71797526       0.00000000
