10
Lattice="16.28999089631971 0.0 0.0 0.0 16.28999089631971 0.0 0.0 0.0 34.51877397758722" Properties=species:S:1:pos:R:3:initial_magmoms:R:1 pbc="T T T"
Si      -1.35180936      -1.35500220      -1.35824548       0.00000000
Si       1.35771561       1.36137159      -1.36111054       0.00000000
Si      -1.32180318       1.36893015       1.39939188       0.00000000
Si       1.21106376      -1.41178914       1.45790123       0.00000000
Si       0.52717698       2.09352564       2.76126183       0.00000000
Si      -2.35147779      -0.43471494       2.71600769       0.00000000
Si      -0.66634245      -2.26947393       2.74638423       0.00000000
Si       2.32378546       0.19635966       2.86809750       0.00000000
Si      -2.70972747      -0.00125433      -2.71873468       0.00000000
Si       2.70773099      -2.72246136       0.02699370       0.00000000
