10
Lattice="16.28999089631971 0.0 0.0 0.0 16.28999089631971 0.0 0.0 0.0 34.51877397758722" Properties=species:S:1:pos:R:3:initial_magmoms:R:1 pbc="T T T"
Si       1.37546244       1.33636644      -1.38913980       0.00000000
Si      -1.34426709      -1.37828061      -1.38630926       0.00000000
Si       1.40247126      -1.36581876       1.37008542       0.00000000
Si      -1.46512260       1.38789171       1.62683621       0.00000000
Si      -2.69431713       2.68061724      -0.01832948       0.00000000
Si       2.72041371       2.67996564       0.00566108       0.00000000
Si      -2.69812899      -2.72329704      -0.00376255       0.00000000
Si       0.01484019       2.69539227      -2.74855891       0.00000000
Si      -2.69959509      -0.01918962      -2.74793758       0.00000000
Si       2.72427444      -2.73474891      -0.02930646       0.00000000
