10
Lattice="16.28999089631971 0.0 0.0 0.0 16.28999089631971 0.0 0.0 0.0 34.51877397758722" Properties=species:S:1:pos:R:3:initial_magmoms:R:1 pbc="T T T"
Si       0.79169467      -1.91907603      -1.11889217       0.00000000
Si       1.52493689       1.17320580       1.42119192       0.00000000
Si      -1.22578992      -1.53318222       1.53596345       0.00000000
Si      -1.05420735       1.55318634      -1.95645616       0.00000000
Si       1.25178780       2.26478241      -1.63739896       0.00000000
Si       2.60500625       0.44740485      -2.42425485       0.00000000
Si       0.95048145      -1.06577325      -3.30151546       0.00000000
Si      -2.49799005      -0.10943622       2.85494380       0.00000000
Si       3.01352687       2.37364848       0.08222377       0.00000000
Si       0.22397656       2.59341687       2.82777751       0.00000000
