10
Lattice="16.28999089631971 0.0 0.0 0.0 16.28999089631971 0.0 0.0 0.0 34.51877397758722" Properties=species:S:1:pos:R:3:initial_magmoms:R:1 pbc="T T T"
Si      -1.35596331      -1.35720135      -1.35662309       0.00000000
Si      -1.35498591       1.35888255       1.35855615       0.00000000
Si       1.35868374       1.35784995      -1.35645050       0.00000000
Si       1.35959598      -1.35764118       1.35990238       0.00000000
Si      -0.01001835      -2.69314425       2.72670852       0.00000000
Si      -2.71378368       0.00066789      -2.71352234       0.00000000
Si      -2.71454931       2.71345692       0.00189853       0.00000000
Si      -2.71409319      -2.71407690       0.00207113       0.00000000
Si       0.00174303      -2.71526607      -2.71366041       0.00000000
Si       0.00089595       2.71562838      -2.71345330       0.00000000
