10
Lattice="16.28999089631971 0.0 0.0 0.0 16.28999089631971 0.0 0.0 0.0 34.51877397758722" Properties=species:S:1:pos:R:3:initial_magmoms:R:1 pbc="T T T"
Si       1.35604476      -1.35694071      -1.35852163       0.00000000
Si      -1.36961433      -1.33550307       1.36680614       0.00000000
Si      -1.35959598       1.35764118      -1.35990238       0.00000000
Si       1.35782037       1.35140211       1.39455925       0.00000000
Si      -2.71274112      -2.71471221       0.00044874       0.00000000
Si       2.71513813      -2.71316466       0.00241632       0.00000000
Si       2.71449414       0.00034209      -2.71593865       0.00000000
Si       2.71676475       2.71394360       0.00317573       0.00000000
Si      -0.00057015      -2.71454931      -2.71621480       0.00000000
Si      -2.71458189       2.71652373      -0.00134623       0.00000000
