10
Lattice="16.28999089631971 0.0 0.0 0.0 16.28999089631971 0.0 0.0 0.0 34.51877397758722" Properties=species:S:1:pos:R:3:initial_magmoms:R:1 pbc="T T T"
Si       1.43776747      -1.13904567      -1.47205394       0.00000000
Si      -0.89917542      -1.87035264       1.11502606       0.00000000
Si      -1.29829671       1.57731183      -1.45051421       0.00000000
Si       0.45355500       0.17666505       2.49677884       0.00000000
Si       2.50555580       1.27928628       1.80754209       0.00000000
Si       1.08369455      -3.23175681       1.39141804       0.00000000
Si       2.89042334      -2.39459742       0.02433575       0.00000000
Si       0.05902105      -2.48725494      -2.84265714       0.00000000
Si      -2.84330547      -2.58071067      -0.08747062       0.00000000
Si      -2.65611708       0.22590972      -2.84507346       0.00000000
