10
Lattice="16.28999089631971 0.0 0.0 0.0 16.28999089631971 0.0 0.0 0.0 34.51877397758722" Properties=species:S:1:pos:R:3:initial_magmoms:R:1 pbc="T T T"
Si      -1.87022232       1.52730153      -0.01087342       0.00000000
Si       1.04200614       0.33630705       2.17092143       0.00000000
Si       1.31997870       1.34913780      -1.54478504       0.00000000
Si      -0.07317468      -2.41381962      -0.48743988       0.00000000
Si      -0.81375066       1.29259521       3.23223625       0.00000000
Si      -3.50186130       0.00676035       0.81191654       0.00000000
Si       2.55109612       2.69333973       0.13980111       0.00000000
Si       2.31117633      -2.90952432      -0.20193494       0.00000000
Si      -1.02078027       3.23678457       1.70885286       0.00000000
Si      -1.93678326       2.68301187      -2.09183887       0.00000000
