10
Lattice="16.28999089631971 0.0 0.0 0.0 16.28999089631971 0.0 0.0 0.0 34.51877397758722" Properties=species:S:1:pos:R:3:initial_magmoms:R:1 pbc="T T T"
Si       2.24893291      -0.24622335       0.60739269       0.00000000
Si       0.05724306       0.61600635      -2.29242758       0.00000000
Si      -0.63459324      -2.21050413       0.65043762       0.00000000
Si      -1.07667126       1.45199286       1.59017725       0.00000000
Si       2.84290541      -2.43506178      -0.14953541       0.00000000
Si      -3.01692429      -2.28356478       0.51467521       0.00000000
Si       1.34423029      -1.06204284      -3.41273502       0.00000000
Si       3.48969986       1.68099768       0.05422902       0.00000000
Si       2.54315963      -0.26438670       2.91480142       0.00000000
Si       0.54059994       3.07271984       2.37620469       0.00000000
