10
Lattice="16.28999089631971 0.0 0.0 0.0 16.28999089631971 0.0 0.0 0.0 34.51877397758722" Properties=species:S:1:pos:R:3:initial_magmoms:R:1 pbc="T T T"
Si       0.61539548       1.90565307      -1.30964302       0.00000000
Si       1.35321844      -1.81737756      -0.78685589       0.00000000
Si      -2.30599515      -0.71159607      -0.31905721       0.00000000
Si       1.76173906       0.10886607       1.71962272       0.00000000
Si      -1.25178780      -2.26478241       1.63739896       0.00000000
Si       0.27314909      -1.09157661       3.05859088       0.00000000
Si       2.89560452       1.47276261      -1.18447787       0.00000000
Si       2.45640982      -0.48089709      -2.41117223       0.00000000
Si       3.43025861      -0.95330709       0.17666718       0.00000000
Si      -2.01595170      -1.83933648      -2.48904663       0.00000000
