10
Lattice="16.28999089631971 0.0 0.0 0.0 16.28999089631971 0.0 0.0 0.0 34.51877397758722" Properties=species:S:1:pos:R:3:initial_magmoms:R:1 pbc="T T T"
Si      -1.48858997      -1.20044268       1.33896815       0.00000000
Si       1.20671433       1.68199137       1.28987552       0.00000000
Si      -1.76173906      -0.10886607      -1.71962272       0.00000000
Si       1.66851954      -1.06217316      -1.54295554       0.00000000
Si      -0.40852062      -1.92624363      -2.50647862       0.00000000
Si       1.13386545       1.36389654      -2.90410060       0.00000000
Si      -1.14634359       1.79678700      -3.02926574       0.00000000
Si      -0.06869493      -2.50707987       2.75264391       0.00000000
Si       2.64793950       0.21914937       2.73897101       0.00000000
Si      -3.01352687      -2.37364848      -0.08222377       0.00000000
