10
Lattice="16.28999089631971 0.0 0.0 0.0 16.28999089631971 0.0 0.0 0.0 34.51877397758722" Properties=species:S:1:pos:R:3:initial_magmoms:R:1 pbc="T T T"
Si       1.80108756      -1.48265064       0.40642427       0.00000000
Si      -0.15288165       1.87457175       1.44778723       0.00000000
Si       0.14009400       0.59328180      -2.32532399       0.00000000
Si      -1.79551475      -1.49071419       0.58971906       0.00000000
Si      -0.51448707      -2.89958742       2.19187433       0.00000000
Si       1.66288320      -1.99902735       2.69042927       0.00000000
Si       2.08684674       2.81152368       1.40187723       0.00000000
Si       1.14689745      -3.60347832      -0.46873069       0.00000000
Si      -2.97917126      -1.82664657      -1.57005279       0.00000000
Si      -2.34908805       2.88583866       0.92168630       0.00000000
