10
Lattice="16.28999089631971 0.0 0.0 0.0 16.28999089631971 0.0 0.0 0.0 34.51877397758722" Properties=species:S:1:pos:R:3:initial_magmoms:R:1 pbc="T T T"
Si      -2.28020904       0.43289046      -0.12516514       0.00000000
Si      -0.43919469      -1.95365970      -1.22669436       0.00000000
Si       1.84098177       1.29990942      -0.82061527       0.00000000
Si       0.53465409      -2.42606970       1.36114506       0.00000000
Si      -1.13386545      -1.36389654       2.90410060       0.00000000
Si      -2.89560452      -1.47276261       1.18447787       0.00000000
Si       1.56426354      -2.97105165      -0.83083284       0.00000000
Si       0.93651210       2.22174423       2.70748155       0.00000000
Si      -1.54238607      -3.29014017       0.39762198       0.00000000
Si       1.67521473       3.31483581       0.39599960       0.00000000
