10
Lattice="16.28999089631971 0.0 0.0 0.0 16.28999089631971 0.0 0.0 0.0 34.51877397758722" Properties=species:S:1:pos:R:3:initial_magmoms:R:1 pbc="T T T"
Si       1.35727673       1.35759231       1.35641598       0.00000000
Si       1.35720180      -1.35746199      -1.35772770       0.00000000
Si      -1.35735795       1.35769005      -1.35790029       0.00000000
Si      -1.35844938      -1.35728280       1.35741703       0.00000000
Si       2.71027852       0.00188964       2.71573154       0.00000000
Si      -0.00112408      -2.71459818      -2.71410916       0.00000000
Si       2.71443247      -2.71445157       0.00062134       0.00000000
Si       2.71435102       0.00131949      -2.71507568       0.00000000
Si      -2.71506429      -2.71489140      -0.00027615       0.00000000
Si       2.71536100       2.71475823      -0.00017259       0.00000000
