10
Lattice="16.28999089631971 0.0 0.0 0.0 16.28999089631971 0.0 0.0 0.0 34.51877397758722" Properties=species:S:1:pos:R:3:initial_magmoms:R:1 pbc="T T T"
Si      -1.35300179       1.35570267      -1.35931556       0.00000000
Si      -1.33088811      -1.36718712       1.37322663       0.00000000
Si       1.36233270      -1.35801585      -1.35831452       0.00000000
Si       1.36845774       1.36549296       1.36597769       0.00000000
Si      -2.70800792       2.71171187       0.00338284       0.00000000
Si      -2.70963453      -2.71539639       0.00262343       0.00000000
Si      -2.71027852      -0.00188964      -2.71573154       0.00000000
Si       0.00508248       2.71286859      -2.71590414       0.00000000
Si       2.71565703      -2.71427238       0.00200209       0.00000000
Si       0.00415395      -2.71634121      -2.71511020       0.00000000
