10
Lattice="16.28999089631971 0.0 0.0 0.0 16.28999089631971 0.0 0.0 0.0 34.51877397758722" Properties=species:S:1:pos:R:3:initial_magmoms:R:1 pbc="T T T"
Si       1.33088811       1.36718712      -1.37322663       0.00000000
Si      -1.43776747       1.13904567       1.47205394       0.00000000
Si      -1.37874642      -1.34820927      -1.37060321       0.00000000
Si       1.45265586      -1.25555175       1.49638969       0.00000000
Si      -2.33694289      -0.73130697       2.58708000       0.00000000
Si      -0.35407292      -2.09271114       2.86347198       0.00000000
Si       2.69476836      -2.70749574      -0.00445292       0.00000000
Si       2.69322081       0.00917127      -2.73154115       0.00000000
Si       2.69934585       2.73268008      -0.00724895       0.00000000
Si      -0.02341525      -2.70844056      -2.73088529       0.00000000
