10
Lattice="16.28999089631971 0.0 0.0 0.0 16.28999089631971 0.0 0.0 0.0 34.45770212530097" Properties=species:S:1:pos:R:3:initial_magmoms:R:1 pbc="T T T"
Si       1.28751273       1.95572853      -0.14482580       0.00000000
Si       1.31667183      -1.92650427      -0.44567617       0.00000000
Si      -2.21229440       0.07374483      -0.91488696       0.00000000
Si      -0.42088473      -0.37655964       2.33020341       0.00000000
Si      -2.16118453      -2.23192548      -1.33981958       0.00000000
Si      -0.45348102      -3.40131942      -0.18614061       0.00000000
Si      -0.75904884       1.84171482       2.93941592       0.00000000
Si       0.01418859       3.26972133      -1.66775371       0.00000000
Si       1.80602343      -0.90293841       3.06677166       0.00000000
Si       3.01470885      -1.73415195       1.19389113       0.00000000
