10
Lattice="16.28999089631971 0.0 0.0 0.0 16.28999089631971 0.0 0.0 0.0 34.45770212530097" Properties=species:S:1:pos:R:3:initial_magmoms:R:1 pbc="T T T"
Si       1.34113941       1.34579835       1.37484930       0.00000000
Si      -1.33369488       1.39551543      -1.38240932       0.00000000
Si      -1.37507148      -1.36728975       1.37130015       0.00000000
Si       1.31926194      -1.42811661      -1.43376856       0.00000000
Si      -2.12455809      -0.39273561      -2.72373957       0.00000000
Si       2.69184105       2.69570178      -0.02403081       0.00000000
Si      -0.66357315      -2.34499274      -2.93307023       0.00000000
Si       2.68020999      -2.73807880       0.01161225       0.00000000
Si       2.69892720      -0.01073511       2.73138088       0.00000000
Si      -0.01479132       2.70335808       2.73286256       0.00000000
