10
Lattice="16.28999089631971 0.0 0.0 0.0 16.28999089631971 0.0 0.0 0.0 34.45770212530097" Properties=species:S:1:pos:R:3:initial_magmoms:R:1 pbc="T T T"
Si      -1.35837423       1.26201073       1.35294797       0.00000000
Si      -1.36360332      -1.32315429      -1.35256894       0.00000000
Si       1.35255870       1.39110899      -1.35177641       0.00000000
Si       1.29974652      -1.39642671       1.45349560       0.00000000
Si       0.33034491       2.03358659       2.75158688       0.00000000
Si       2.13530949       0.39973217       2.77598295       0.00000000
Si       2.70058878      -2.65945557       0.00148168       0.00000000
Si      -0.01106091      -2.68239189      -2.71140918       0.00000000
Si       2.70444951       0.03291395      -2.71113352       0.00000000
Si      -2.73489552      -2.68548699       0.02822087       0.00000000
