10
Lattice="16.28999089631971 0.0 0.0 0.0 16.28999089631971 0.0 0.0 0.0 34.45770212530097" Properties=species:S:1:pos:R:3:initial_magmoms:R:1 pbc="T T T"
Si      -0.58723821       1.01103559      -1.93790225       0.00000000
Si       2.09583882      -1.03049955       0.14479135       0.00000000
Si      -0.74601684       1.80110059       1.47244735       0.00000000
Si      -1.41618744      -2.06563131       0.05206562       0.00000000
Si      -1.06965027      -1.90919844       2.42403178       0.00000000
Si       1.28866932      -2.17785312       2.15567505       0.00000000
Si      -1.66335561      -0.73110564      -2.94186242       0.00000000
Si      -1.47795912       0.31042876       3.16270196       0.00000000
Si       1.19558826       1.91032504      -2.99513406       0.00000000
Si       2.76991902      -2.48125437      -1.75193393       0.00000000
