10
Lattice="16.28999089631971 0.0 0.0 0.0 16.28999089631971 0.0 0.0 0.0 34.45770212530097" Properties=species:S:1:pos:R:3:initial_magmoms:R:1 pbc="T T T"
Si       0.36377199      -2.23042680      -0.38044770       0.00000000
Si       1.08541899       1.26170937      -1.61627388       0.00000000
Si      -2.25522018       0.64545867      -0.21015764       0.00000000
Si       0.32816205       0.34054245       2.33454508       0.00000000
Si      -0.00716760       3.28307031      -1.08145559       0.00000000
Si       2.54594781      -2.30530053       0.63726110       0.00000000
Si      -1.65775185      -3.17430917       0.50849259       0.00000000
Si       2.67750585      -0.51445449       2.42496214       0.00000000
Si      -2.17626255       2.68946271      -1.40332516       0.00000000
Si       0.48620763       0.19903122      -3.74775961       0.00000000
