10
Lattice="16.28999089631971 0.0 0.0 0.0 16.28999089631971 0.0 0.0 0.0 34.45770212530097" Properties=species:S:1:pos:R:3:initial_magmoms:R:1 pbc="T T T"
Si      -0.32816205      -0.34054245      -2.33454508       0.00000000
Si      -0.66028257       2.25878769       0.43516656       0.00000000
Si       2.34934380      -0.85499694       0.09041706       0.00000000
Si      -1.64975346      -0.68722623       2.52258087       0.00000000
Si      -0.18876852      -2.63948336       2.31325021       0.00000000
Si      -2.58338223       0.30491622      -2.54470272       0.00000000
Si       0.03560994      -2.57096925      -2.71499278       0.00000000
Si      -3.78255755       0.08465913      -0.32590113       0.00000000
Si      -3.09964491       1.98102690       0.95627068       0.00000000
Si       2.21778576      -2.64584298      -1.69728398       0.00000000
