10
Lattice="16.28999089631971 0.0 0.0 0.0 16.28999089631971 0.0 0.0 0.0 34.45770212530097" Properties=species:S:1:pos:R:3:initial_magmoms:R:1 pbc="T T T"
Si       2.36299482      -0.08963410      -0.17056572       0.00000000
Si      -0.70482662       1.74298113       1.53250716       0.00000000
Si      -0.59755697      -2.34897632       0.28365596       0.00000000
Si      -0.70067267       1.91633931      -1.54060472       0.00000000
Si      -1.74052853       0.14832208      -2.67185172       0.00000000
Si       2.77130367      -2.30926130      -0.90923589       0.00000000
Si      -3.19037111      -1.33573832      -1.54742735       0.00000000
Si      -1.93343471       3.26114397       0.07970071       0.00000000
Si       1.44189306      -3.50934560       0.63412545       0.00000000
Si       3.09493710       1.40103774      -1.86082033       0.00000000
