10
Lattice="16.28999089631971 0.0 0.0 0.0 16.28999089631971 0.0 0.0 0.0 34.45770212530097" Properties=species:S:1:pos:R:3:initial_magmoms:R:1 pbc="T T T"
Si      -1.36438524      -1.35200484      -1.37910138       0.00000000
Si       1.35412254       1.36373364      -1.38075535       0.00000000
Si      -1.35786924       1.34087877       1.48188877       0.00000000
Si       1.22780988      -1.61552817       1.34915762       0.00000000
Si       2.69488728       2.71565703       0.01395538       0.00000000
Si      -2.70213633      -2.72551248      -0.01343851       0.00000000
Si      -2.72714148       2.70182682      -0.01488574       0.00000000
Si      -0.00382815      -2.71204065      -2.73935439       0.00000000
Si       2.71199178       0.00242721      -2.74114619       0.00000000
Si      -0.00553860       2.71661814      -2.74011246       0.00000000
