10
Lattice="16.28999089631971 0.0 0.0 0.0 16.28999089631971 0.0 0.0 0.0 34.45770212530097" Properties=species:S:1:pos:R:3:initial_magmoms:R:1 pbc="T T T"
Si       0.73194228       1.49067184      -1.69025461       0.00000000
Si      -2.36299482       0.08963410       0.17056572       0.00000000
Si       0.40830885      -2.21962720      -0.73867017       0.00000000
Si       1.22090292       0.52380332       1.99393051       0.00000000
Si       1.47795912      -0.31042876      -3.16270196       0.00000000
Si      -0.92110176      -3.41971150       0.80469117       0.00000000
Si      -2.96055179      -2.25934222       0.45422168       0.00000000
Si       2.76662844      -2.48828188      -1.00702691       0.00000000
Si       3.53157426       0.18885160       1.55087312       0.00000000
Si      -3.06366749       2.00597341      -1.37003900       0.00000000
