10
Lattice="16.28999089631971 0.0 0.0 0.0 16.28999089631971 0.0 0.0 0.0 34.45770212530097" Properties=species:S:1:pos:R:3:initial_magmoms:R:1 pbc="T T T"
Si       1.42078122       1.76572197      -0.61179684       0.00000000
Si       0.23040576      -0.33177843       2.33361472       0.00000000
Si       0.85910202      -1.99967895      -1.26139381       0.00000000
Si      -0.57137175      -1.09213047      -3.13716879       0.00000000
Si      -0.78646491      -2.41989579       2.22307435       0.00000000
Si      -2.90357847      -1.65934827       1.35525664       0.00000000
Si       0.31570020      -3.70532340       0.54177875       0.00000000
Si       1.36049193       3.28895100       1.25698322       0.00000000
Si      -3.17355264       1.72732644      -1.37727512       0.00000000
Si       3.32460981      -1.51373196      -1.36218264       0.00000000
