10
Lattice="16.28999089631971 0.0 0.0 0.0 16.28999089631971 0.0 0.0 0.0 34.45770212530097" Properties=species:S:1:pos:R:3:initial_magmoms:R:1 pbc="T T T"
Si       1.49747943       1.52823006       0.85675678       0.00000000
Si       0.31522779       0.23496696      -2.29557340       0.00000000
Si      -2.03949401       0.76230684       0.91416335       0.00000000
Si       0.52164978      -2.16762885       0.84952066       0.00000000
Si      -2.51408687      -1.86341310      -1.60521295       0.00000000
Si      -1.98337496      -0.49754547       2.88600645       0.00000000
Si       0.00398942      -1.76060691       3.06866684       0.00000000
Si       3.43043454       0.78711651      -0.37383182       0.00000000
Si      -1.44456692      -3.26885566       0.03352736       0.00000000
Si       2.64307368      -0.09075159      -2.48939808       0.00000000
