10
Lattice="16.28999089631971 0.0 0.0 0.0 16.28999089631971 0.0 0.0 0.0 34.45770212530097" Properties=species:S:1:pos:R:3:initial_magmoms:R:1 pbc="T T T"
Si       1.40818905      -1.44052470       1.19809497       0.00000000
Si      -2.33476425      -0.25223436       0.18896614       0.00000000
Si       0.27803772      -0.02759526      -2.34216024       0.00000000
Si       0.44584101       2.22053877       0.72023529       0.00000000
Si       2.72091870       1.51107669       1.40156782       0.00000000
Si       1.78489530      -0.09177786       3.04644161       0.00000000
Si      -2.74025493      -1.25345034      -1.89755226       0.00000000
Si       0.60362595      -2.47150251      -2.50828091       0.00000000
Si       3.60790920      -0.56120679       0.72388781       0.00000000
Si       0.95974164       3.45714525      -1.17638661       0.00000000
