10
Lattice="16.28999089631971 0.0 0.0 0.0 16.28999089631971 0.0 0.0 0.0 34.45770212530097" Properties=species:S:1:pos:R:3:initial_magmoms:R:1 pbc="T T T"
Si       1.35681039      -1.35811359      -1.35460194       0.00000000
Si       1.35666378       1.35747828       1.35811663       0.00000000
Si      -1.35852084      -1.35729909       1.35801326       0.00000000
Si      -1.35871632       1.35656604      -1.36132120       0.00000000
Si      -0.00552231      -2.70112635      -2.72193601       0.00000000
Si       2.70655092       0.00553860      -2.71670533       0.00000000
Si       2.71280628      -2.71192662       0.00044795       0.00000000
Si       2.71321353       0.00055386       2.71519953       0.00000000
Si      -0.00164529      -2.71448415       2.71461375       0.00000000
Si      -2.71507059      -2.71461447       0.00058578       0.00000000
