10
Lattice="16.28999089631971 0.0 0.0 0.0 16.28999089631971 0.0 0.0 0.0 34.45770212530097" Properties=species:S:1:pos:R:3:initial_magmoms:R:1 pbc="T T T"
Si      -1.35565380      -1.35610992      -1.35842675       0.00000000
Si      -1.35399222       1.36001952       1.35660049       0.00000000
Si       1.35966114      -1.35288450       1.35935711       0.00000000
Si       1.35920502       1.35892809      -1.35784097       0.00000000
Si       0.01918962       2.69578323       2.70710196       0.00000000
Si      -2.71252935       0.00107514      -2.71502724       0.00000000
Si      -2.71472850      -2.71283886      -0.00065470       0.00000000
Si      -2.71285515       2.71604799      -0.00099927       0.00000000
Si       0.00208512      -2.71344159      -2.71554411       0.00000000
Si       0.00265527       2.71585251      -2.71492387       0.00000000
