10
Lattice="16.28999089631971 0.0 0.0 0.0 16.28999089631971 0.0 0.0 0.0 34.45770212530097" Properties=species:S:1:pos:R:3:initial_magmoms:R:1 pbc="T T T"
Si      -1.34765541      -1.34190504      -1.37210647       0.00000000
Si       1.36761066       1.37481084      -1.36862624       0.00000000
Si      -1.43654994       1.32465393       1.36083879       0.00000000
Si       1.36927224      -1.36094805       1.49677450       0.00000000
Si       0.42412644       2.15462943       2.50611008       0.00000000
Si       2.09251566       0.40557213       2.96112429       0.00000000
Si      -2.67633949      -2.70578529      -0.00389372       0.00000000
Si       0.00687438      -2.69804754      -2.72588142       0.00000000
Si       2.72714148      -2.70182682       0.01488574       0.00000000
Si      -2.70495613       0.01505196      -2.72612263       0.00000000
