10
Lattice="16.28999089631971 0.0 0.0 0.0 16.28999089631971 0.0 0.0 0.0 34.45770212530097" Properties=species:S:1:pos:R:3:initial_magmoms:R:1 pbc="T T T"
Si       1.42333875      -1.23527070      -1.32948226       0.00000000
Si       1.63165527       1.05171498       1.27011161       0.00000000
Si      -0.89332731      -1.79121582       1.19475257       0.00000000
Si      -1.31919678       1.49579667      -1.29781562       0.00000000
Si      -1.51259166      -0.72984087       3.10694936       0.00000000
Si       2.64546342      -2.55992463       0.27621309       0.00000000
Si       0.05015691      -2.57103441      -2.67998374       0.00000000
Si      -2.66631462       0.14385699      -2.67957025       0.00000000
Si      -2.75400369      -2.62119132       0.04948129       0.00000000
Si       3.49583400      -0.66240027       1.35756531       0.00000000
