10
Lattice="16.28999089631971 0.0 0.0 0.0 16.28999089631971 0.0 0.0 0.0 34.45770212530097" Properties=species:S:1:pos:R:3:initial_magmoms:R:1 pbc="T T T"
Si      -1.33512744      -1.36146933      -1.35304101       0.00000000
Si       1.33925791       1.35241209      -1.37200309       0.00000000
Si      -1.35386877       1.35739683       1.35380942       0.00000000
Si       1.35673709      -1.35700587       1.35318918       0.00000000
Si       0.08813379      -2.62293272      -2.75579073       0.00000000
Si      -2.71407594       0.00057015       2.71099569       0.00000000
Si       0.00084871       2.71477737       2.71092677       0.00000000
Si       0.00086174      -2.71498262       2.71085786       0.00000000
Si       2.71545340       0.00034209       2.71058219       0.00000000
Si       2.71322168      -2.71312068      -0.00744287       0.00000000
