10
Lattice="16.28999089631971 0.0 0.0 0.0 16.28999089631971 0.0 0.0 0.0 34.45770212530097" Properties=species:S:1:pos:R:3:initial_magmoms:R:1 pbc="T T T"
Si      -1.35189081       1.35819504       1.35935711       0.00000000
Si      -1.35601218      -1.35667402      -1.35739302       0.00000000
Si       1.35661491      -1.35580793       1.36025301       0.00000000
Si       1.35855342       1.35850455      -1.35725519       0.00000000
Si      -0.00386073      -2.69236952       2.71261520       0.00000000
Si       0.02028105       2.69340489       2.71482049       0.00000000
Si      -2.70444951      -0.03291395       2.71113352       0.00000000
Si       0.00104256      -2.71364426      -2.71464821       0.00000000
Si      -2.71375110       0.00102464      -2.71482049       0.00000000
Si       2.71490769       2.71494027      -0.00031012       0.00000000
