10
Lattice="16.28999089631971 0.0 0.0 0.0 16.28999089631971 0.0 0.0 0.0 34.45770212530097" Properties=species:S:1:pos:R:3:initial_magmoms:R:1 pbc="T T T"
Si       1.35733167      -1.34673828      -1.49808389       0.00000000
Si      -1.35436689       1.35146727      -1.52795874       0.00000000
Si       0.76273038       1.73863170       1.57234028       0.00000000
Si      -1.94378796      -0.97511940       1.24433723       0.00000000
Si      -1.14272721       3.29266512       1.22510983       0.00000000
Si      -2.85729858       2.47065543      -0.15292337       0.00000000
Si       2.67489945       2.69874801       0.05113526       0.00000000
Si       2.77389378      -2.76968186      -0.03804132       0.00000000
Si      -2.77935093      -2.77127828      -0.07815011       0.00000000
Si      -0.01803303      -2.69774555      -2.88252622       0.00000000
