10
Lattice="16.28999089631971 0.0 0.0 0.0 16.28999089631971 0.0 0.0 0.0 34.45770212530097" Properties=species:S:1:pos:R:3:initial_magmoms:R:1 pbc="T T T"
Si      -1.47768219       1.65306033       0.99307153       0.00000000
Si       1.70557929       0.10137267       1.87598173       0.00000000
Si      -1.85634324      -1.65345129       0.77705607       0.00000000
Si       0.83119725       0.91603557      -2.58594862       0.00000000
Si       1.76133996      -2.23264224       2.13334645       0.00000000
Si      -0.54059994      -2.72043489       2.40053162       0.00000000
Si       0.05929560       3.13773093       1.96753589       0.00000000
Si      -2.62016505       2.63922435      -0.90868457       0.00000000
Si      -1.87532109      -1.79771553      -2.91395167       0.00000000
Si       0.86519448       1.57187097       3.52047648       0.00000000
