10
Lattice="16.28999089631971 0.0 0.0 0.0 16.28999089631971 0.0 0.0 0.0 34.45770212530097" Properties=species:S:1:pos:R:3:initial_magmoms:R:1 pbc="T T T"
Si       1.62838098       1.19904174       1.12786221       0.00000000
Si       1.28780595      -0.62752338      -1.83510698       0.00000000
Si      -1.54585584       1.34135118      -1.13830294       0.00000000
Si      -1.21946940      -1.76772564       1.01359696       0.00000000
Si       0.26197578      -2.79111231      -1.79124230       0.00000000
Si       0.16381224       2.36724651       2.58473467       0.00000000
Si      -1.92256209      -0.00739566      -2.98664957       0.00000000
Si       0.27715806       0.87192225      -3.46085673       0.00000000
Si      -2.56903074      -0.36163800       2.55599349       0.00000000
Si       2.86863642      -0.35422605       2.56563131       0.00000000
