10
Lattice="16.28999089631971 0.0 0.0 0.0 16.28999089631971 0.0 0.0 0.0 34.45770212530097" Properties=species:S:1:pos:R:3:initial_magmoms:R:1 pbc="T T T"
Si      -1.82568546       1.34745993       0.44808821       0.00000000
Si       0.80589888      -1.56585996       1.55294059       0.00000000
Si      -1.53697779      -1.48467060      -0.97446436       0.00000000
Si       1.47743784       1.60089975      -1.01322930       0.00000000
Si       1.64628369      -3.03635826      -0.09155417       0.00000000
Si       0.10378359       3.48026076      -0.54787777       0.00000000
Si      -2.78430309      -1.99852236       1.03734970       0.00000000
Si      -1.03009815       3.05748639       1.80362051       0.00000000
Si      -0.05929560      -3.13773093      -1.96753589       0.00000000
Si      -1.03680963      -2.60473842       2.51923847       0.00000000
