10
Lattice="16.28999089631971 0.0 0.0 0.0 16.28999089631971 0.0 0.0 0.0 34.45770212530097" Properties=species:S:1:pos:R:3:initial_magmoms:R:1 pbc="T T T"
Si       1.72683774       1.53388269       0.01378309       0.00000000
Si      -1.78699671       1.45523457       0.26694397       0.00000000
Si       0.86079618      -1.45099917       1.62809288       0.00000000
Si      -0.01523115      -0.52429365      -2.34684649       0.00000000
Si      -3.14002782      -0.46913571       0.75479639       0.00000000
Si      -1.32009273       2.57787621      -1.77757047       0.00000000
Si       3.08444634      -0.72738108       1.42896171       0.00000000
Si       1.01647971       3.06926406      -1.64073886       0.00000000
Si       2.25929268      -0.09084933      -2.83959190       0.00000000
Si       0.83966805      -3.67580592       0.78677315       0.00000000
