10
Lattice="16.28999089631971 0.0 0.0 0.0 16.28999089631971 0.0 0.0 0.0 34.45770212530097" Properties=species:S:1:pos:R:3:initial_magmoms:R:1 pbc="T T T"
Si      -1.39743431      -1.36987497       1.33419381       0.00000000
Si       1.25518597       1.52945181       1.32433890       0.00000000
Si       1.87029800      -0.26878500      -1.59510329       0.00000000
Si      -1.88867555       0.30843486      -1.61105722       0.00000000
Si       1.08545720       1.74242727      -2.63121252       0.00000000
Si      -1.04201909      -1.21150359      -3.15869132       0.00000000
Si      -1.24269560       2.46036015      -2.27943364       0.00000000
Si       0.02132695      -2.55994092       2.72064847       0.00000000
Si       1.18738536      -2.16515277      -2.87727511       0.00000000
Si      -2.71573514       0.15881121       2.68055347       0.00000000
