10
Lattice="16.28999089631971 0.0 0.0 0.0 16.28999089631971 0.0 0.0 0.0 34.45770212530097" Properties=species:S:1:pos:R:3:initial_magmoms:R:1 pbc="T T T"
Si      -1.35599589       1.35381303      -1.35504989       0.00000000
Si       1.35853713       1.35461124       1.35735856       0.00000000
Si      -1.35671265      -1.35988920       1.35704844       0.00000000
Si       1.35829278      -1.36054080      -1.36190698       0.00000000
Si      -2.71280628       2.71192662      -0.00044795       0.00000000
Si       0.00040725       2.71248048       2.71475158       0.00000000
Si      -2.71445157      -0.00255753       2.71416580       0.00000000
Si       2.71627605       2.71265967       0.00010337       0.00000000
Si       2.71598283      -0.00268785       2.71454483       0.00000000
Si      -2.71407690      -2.71764441       0.00068915       0.00000000
