10
Lattice="16.28999089631971 0.0 0.0 0.0 16.28999089631971 0.0 0.0 0.0 34.45770212530097" Properties=species:S:1:pos:R:3:initial_magmoms:R:1 pbc="T T T"
Si       0.60727491       1.87869312       1.34324178       0.00000000
Si      -1.93870548      -0.84347991       1.11442528       0.00000000
Si       0.14460633       0.53918271      -2.40949494       0.00000000
Si       1.85631066      -1.64343294       0.11236063       0.00000000
Si       2.10486348       1.73488500      -1.77657551       0.00000000
Si       2.08127556       0.62426538       2.70425631       0.00000000
Si      -0.66207447      -2.09272743       2.70857042       0.00000000
Si       0.75165318      -3.34775790       1.35269698       0.00000000
Si      -2.78032833      -2.57641011      -0.24944376       0.00000000
Si       1.68135606       3.45771460      -0.10299844       0.00000000
