10
Lattice="16.28999089631971 0.0 0.0 0.0 16.28999089631971 0.0 0.0 0.0 34.45770212530097" Properties=species:S:1:pos:R:3:initial_magmoms:R:1 pbc="T T T"
Si       1.33576371       1.35164646       1.36645195       0.00000000
Si      -1.47400065       1.25442774      -1.36101452       0.00000000
Si      -1.38103362      -1.36536264       1.36211028       0.00000000
Si       1.51288488      -1.30377015      -1.35460539       0.00000000
Si      -0.22496490      -2.26769832      -2.59189567       0.00000000
Si      -2.08127556      -0.62426538      -2.70425631       0.00000000
Si       2.69187363       2.68454022      -0.00800797       0.00000000
Si       2.69244378      -0.00535941       2.72188088       0.00000000
Si      -0.01943397       2.70654694       2.72136402       0.00000000
Si      -0.02081862      -2.72179836       2.72157076       0.00000000
