10
Lattice="16.28999089631971 0.0 0.0 0.0 16.28999089631971 0.0 0.0 0.0 34.45770212530097" Properties=species:S:1:pos:R:3:initial_magmoms:R:1 pbc="T T T"
Si      -1.93951998       1.07486307      -0.79979817       0.00000000
Si       1.96025715       1.19570229       0.63291943       0.00000000
Si      -0.14460633      -0.53918271       2.40949494       0.00000000
Si       0.91523736      -1.21020039      -1.97594357       0.00000000
Si       1.71170433      -2.18261565       2.52185557       0.00000000
Si       2.66691735      -2.53382805      -1.11081356       0.00000000
Si      -3.39535728      -0.44540118      -1.84197195       0.00000000
Si       3.89142036      -0.33049152       0.23689683       0.00000000
Si       0.46266858       1.33951041       3.75273672       0.00000000
Si       1.53674973       2.91853189       2.30649650       0.00000000
