10
Lattice="16.28999089631971 0.0 0.0 0.0 16.28999089631971 0.0 0.0 0.0 34.45770212530097" Properties=species:S:1:pos:R:3:initial_magmoms:R:1 pbc="T T T"
Si       1.44016632       0.92383848      -1.65658941       0.00000000
Si      -1.96025715      -1.19570229      -0.63291943       0.00000000
Si      -0.42350742       1.72282960       1.67357707       0.00000000
Si       1.93116321      -1.52619381      -0.39602259       0.00000000
Si      -2.10486348      -1.73488500       1.77657551       0.00000000
Si       1.68813270       2.91716826      -0.26773650       0.00000000
Si      -1.49758857       0.14380812       3.11981729       0.00000000
Si      -1.04501979      -2.40590268      -2.60886300       0.00000000
Si       0.08125452       1.14256431      -3.62378073       0.00000000
Si      -0.24855282      -3.37831794       1.88893615       0.00000000
