10
Lattice="16.28999089631971 0.0 0.0 0.0 16.28999089631971 0.0 0.0 0.0 34.45770212530097" Properties=species:S:1:pos:R:3:initial_magmoms:R:1 pbc="T T T"
Si       1.41876126      -1.19006595       1.38645466       0.00000000
Si       1.39743431       1.36987497      -1.33419381       0.00000000
Si      -1.31830083       1.52868618       1.34635966       0.00000000
Si      -0.90746703      -1.93077225      -1.43355634       0.00000000
Si      -0.49124124       1.67830983      -2.94525103       0.00000000
Si       1.00173726      -3.34486805      -1.21014587       0.00000000
Si       0.04298931      -2.54561549       2.73219063       0.00000000
Si       2.84202249      -2.45152934      -0.01629506       0.00000000
Si      -2.72046258      -2.63246400      -0.02022324       0.00000000
Si      -2.67828777       0.17378172       2.73315545       0.00000000
