10
Lattice="16.28999089631971 0.0 0.0 0.0 16.28999089631971 0.0 0.0 0.0 34.45770212530097" Properties=species:S:1:pos:R:3:initial_magmoms:R:1 pbc="T T T"
Si       1.53469297       0.48314837       1.69766302       0.00000000
Si       1.43494605      -0.15856930      -1.84279894       0.00000000
Si      -1.60187715       1.76983520      -0.05961186       0.00000000
Si      -1.14574086      -2.18443917       0.03214905       0.00000000
Si       1.75034814       2.80265377       0.64904564       0.00000000
Si      -3.38214609      -0.97656825       0.09455199       0.00000000
Si      -3.13417971       1.01676153       1.48340491       0.00000000
Si       0.16726572       0.25306352       3.65036869       0.00000000
Si       0.48216771      -1.82773704      -3.16883543       0.00000000
Si       3.54699179      -0.79685697      -0.85110572       0.00000000
