10
Lattice="16.28999089631971 0.0 0.0 0.0 16.28999089631971 0.0 0.0 0.0 34.45770212530097" Properties=species:S:1:pos:R:3:initial_magmoms:R:1 pbc="T T T"
Si      -1.35710361       1.35728280       1.35732410       0.00000000
Si       1.35663120       1.35816246      -1.35749639       0.00000000
Si      -1.35638685      -1.35853713      -1.35753085       0.00000000
Si       1.35752715      -1.35773892       1.35780651       0.00000000
Si       0.00084708       2.71301805       2.71395905       0.00000000
Si       2.71379997       0.00042354       2.71461375       0.00000000
Si      -2.71435383      -0.00066789       2.71433809       0.00000000
Si      -2.71454931       2.71458189       0.00013783       0.00000000
Si      -0.00285075      -2.71282257      -2.71699133       0.00000000
Si       2.71524978      -2.71463076       0.00034458       0.00000000
