10
Lattice="16.28999089631971 0.0 0.0 0.0 16.28999089631971 0.0 0.0 0.0 34.45770212530097" Properties=species:S:1:pos:R:3:initial_magmoms:R:1 pbc="T T T"
Si       1.35648153      -1.35742941      -1.36514601       0.00000000
Si      -1.35974795       1.35907470      -1.36559396       0.00000000
Si       1.38661640       1.35159759       1.35649712       0.00000000
Si      -1.37017355      -1.37298636       1.39081701       0.00000000
Si      -0.02680241       2.62330902       2.70107186       0.00000000
Si      -2.71515740      -2.71225242      -0.00527203       0.00000000
Si       2.71244973      -2.71518462      -0.00465179       0.00000000
Si       2.71530048       2.71547784      -0.01171563       0.00000000
Si      -2.71515740       2.71792134      -0.00733949       0.00000000
Si       2.71419276       0.00117288      -2.72284914       0.00000000
