10
Lattice="16.28999089631971 0.0 0.0 0.0 16.28999089631971 0.0 0.0 0.0 34.45770212530097" Properties=species:S:1:pos:R:3:initial_magmoms:R:1 pbc="T T T"
Si      -1.35698958       1.35729909      -1.35704844       0.00000000
Si       1.35653346       1.35769005       1.35784097       0.00000000
Si       1.35783666      -1.35759231      -1.35722073       0.00000000
Si      -1.35661491      -1.35948195       1.35670386       0.00000000
Si      -2.71427238       0.00013032      -2.71437254       0.00000000
Si       0.00092853      -2.71322982       2.71561302       0.00000000
Si      -0.00083079      -2.71433754      -2.71475158       0.00000000
Si      -2.71456560      -2.71521720       0.00006892       0.00000000
Si       2.71472866       2.71510317       0.00006892       0.00000000
Si      -2.71490769       2.71500543       0.00003446       0.00000000
