10
Lattice="16.28999089631971 0.0 0.0 0.0 16.28999089631971 0.0 0.0 0.0 34.45770212530097" Properties=species:S:1:pos:R:3:initial_magmoms:R:1 pbc="T T T"
Si      -1.35663120      -1.35816246       1.35749639       0.00000000
Si       1.35866745       1.35674523       1.35753085       0.00000000
Si      -1.35917244       1.35822762      -1.35656603       0.00000000
Si       1.35764118      -1.35843939      -1.36097662       0.00000000
Si       0.01467729       2.69809641      -2.71355245       0.00000000
Si       2.70324405       0.01927107      -2.72293873       0.00000000
Si      -2.71344159       2.71446786       0.00037903       0.00000000
Si      -2.71373481      -0.00087966       2.71482049       0.00000000
Si       0.00083079       2.71433754       2.71475158       0.00000000
Si      -2.71301805      -2.71669959      -0.00003446       0.00000000
