10
Lattice="16.28999089631971 0.0 0.0 0.0 16.28999089631971 0.0 0.0 0.0 34.45770212530097" Properties=species:S:1:pos:R:3:initial_magmoms:R:1 pbc="T T T"
Si       0.81699288       1.51995474       1.72798581       0.00000000
Si       0.72865170       1.85938947      -1.47868420       0.00000000
Si      -1.44249579      -0.61271577       1.96243615       0.00000000
Si       1.67363853      -1.87124859      -0.17690594       0.00000000
Si      -1.97512992      -0.88194060      -1.33475430       0.00000000
Si      -0.57327768      -2.15493894      -2.79159230       0.00000000
Si       2.16263664       0.58117833      -2.80141275       0.00000000
Si       2.69421029       0.05805756       2.52578544       0.00000000
Si       3.42626660      -0.83526975      -1.43006435       0.00000000
Si       2.48827211      -2.24505522       1.96057543       0.00000000
