10
Lattice="16.28999089631971 0.0 0.0 0.0 16.28999089631971 0.0 0.0 0.0 34.45770212530097" Properties=species:S:1:pos:R:3:initial_magmoms:R:1 pbc="T T T"
Si       0.66878595      -2.19612006       0.73429404       0.00000000
Si      -1.92650427       1.19671227       0.98931564       0.00000000
Si      -1.86316875      -0.34485930      -1.60386910       0.00000000
Si       2.21885505       1.43757621      -0.23982574       0.00000000
Si       0.70191981       2.97929439      -1.34161138       0.00000000
Si      -1.47103587       3.15480285      -0.32207632       0.00000000
Si       3.06334332      -0.55641753      -1.66851178       0.00000000
Si      -0.66733614       0.07659558      -3.58756566       0.00000000
Si      -1.19604438       1.28814804       3.25635804       0.00000000
Si      -3.23682300       1.53450171      -1.13851757       0.00000000
