10
Lattice="16.28999089631971 0.0 0.0 0.0 16.28999089631971 0.0 0.0 0.0 34.45770212530097" Properties=species:S:1:pos:R:3:initial_magmoms:R:1 pbc="T T T"
Si      -0.46734381       1.98781983       1.22080261       0.00000000
Si      -0.45546840      -1.95809058       1.31139196       0.00000000
Si       2.17295568      -0.17550846      -1.01953506       0.00000000
Si      -0.53312283       0.64078344      -2.31941814       0.00000000
Si      -1.76578713      -1.62030114      -0.81644125       0.00000000
Si       2.14474140       2.19120048      -1.60218067       0.00000000
Si       1.47103587      -3.15480285       0.32207632       0.00000000
Si       1.31202918      -0.72567063      -3.15801571       0.00000000
Si      -0.39213288      -3.49966215      -1.28179278       0.00000000
Si       1.62241884       2.96233650       1.65738194       0.00000000
