10
Lattice="16.28999089631971 0.0 0.0 0.0 16.28999089631971 0.0 0.0 0.0 34.45770212530097" Properties=species:S:1:pos:R:3:initial_magmoms:R:1 pbc="T T T"
Si       1.64019123      -1.48476834       0.74835279       0.00000000
Si      -0.64769040      -1.09315674      -1.97497876       0.00000000
Si       1.18850211       1.55579274      -1.31139196       0.00000000
Si      -1.55608596       0.67750110       1.65910483       0.00000000
Si       0.70991820      -3.35442051      -0.55980014       0.00000000
Si      -0.78306030       2.42771499      -2.41204050       0.00000000
Si       2.69180847       2.77909029       0.06808846       0.00000000
Si      -1.35804843       0.44222463      -3.62950071       0.00000000
Si      -3.30776595       2.00112876       0.79397482       0.00000000
Si       3.60465839      -1.59273846      -0.58840005       0.00000000
