10
Lattice="16.28999089631971 0.0 0.0 0.0 16.28999089631971 0.0 0.0 0.0 34.45770212530097" Properties=species:S:1:pos:R:3:initial_magmoms:R:1 pbc="T T T"
Si      -1.18850211      -1.55579274       1.31139196       0.00000000
Si       1.50330636       1.22329755       1.37948042       0.00000000
Si      -1.97156241       0.87192225      -1.10064854       0.00000000
Si       1.34395758      -1.04638815      -1.84255774       0.00000000
Si      -1.83619251      -2.64894948      -0.66358680       0.00000000
Si       1.85323185       2.92390839      -0.20574705       0.00000000
Si      -2.54655054      -1.11356811      -2.31810875       0.00000000
Si       0.45168912      -3.04056108       2.05974475       0.00000000
Si      -1.24866108       2.29661307      -2.80096480       0.00000000
Si       0.22532328       2.56720626       2.99523743       0.00000000
