10
Lattice="16.28999089631971 0.0 0.0 0.0 16.28999089631971 0.0 0.0 0.0 34.45770212530097" Properties=species:S:1:pos:R:3:initial_magmoms:R:1 pbc="T T T"
Si      -0.91828359      -1.74664638       1.35063039       0.00000000
Si       1.73923999       1.00699893       1.35214997       0.00000000
Si      -1.80380799       1.69178166       0.02963364       0.00000000
Si       1.92630457      -0.05550003      -1.64211717       0.00000000
Si       2.97309509       1.95761817      -0.48881724       0.00000000
Si       0.35321607       2.19564765       2.83047925       0.00000000
Si      -2.32140645      -2.85206949      -0.26370494       0.00000000
Si      -2.35729332      -0.55094409       2.83915226       0.00000000
Si      -0.94068234       3.53115072       1.34912803       0.00000000
Si      -3.55170870       0.88345557       1.47690760       0.00000000
