10
Lattice="16.28999089631971 0.0 0.0 0.0 16.28999089631971 0.0 0.0 0.0 34.45770212530097" Properties=species:S:1:pos:R:3:initial_magmoms:R:1 pbc="T T T"
Si       1.40312286       1.10542311       1.61433533       0.00000000
Si       1.42298037      -0.81150264      -1.88986819       0.00000000
Si      -1.91673027       1.33651305      -1.06505371       0.00000000
Si      -1.29031461      -1.55978379       1.63234982       0.00000000
Si       0.77700042      -2.96342793      -1.22149177       0.00000000
Si       2.32140645       2.85206949       0.26370494       0.00000000
Si      -0.03588687       2.30112540       3.10285720       0.00000000
Si      -1.63088964      -3.38634891      -1.33061937       0.00000000
Si      -2.91869559      -2.75882553       0.50448761       0.00000000
Si      -2.96815203       2.77159689       0.50332225       0.00000000
