10
Lattice="16.28999089631971 0.0 0.0 0.0 16.28999089631971 0.0 0.0 0.0 34.45770212530097" Properties=species:S:1:pos:R:3:initial_magmoms:R:1 pbc="T T T"
Si      -1.33576371      -1.35164646      -1.36645195       0.00000000
Si       1.35610992       1.33289376      -1.37445993       0.00000000
Si      -1.35519768       1.35490048       1.35491206       0.00000000
Si       1.35668007      -1.35700587       1.35542893       0.00000000
Si       0.17712117      -2.65541661      -2.72105734       0.00000000
Si      -0.04479750       2.62484747      -2.75813385       0.00000000
Si      -0.00004887       2.71386091       2.71230508       0.00000000
Si      -2.71300176       2.71352371      -0.00589227       0.00000000
Si      -2.71461447      -0.00094482       2.71237400       0.00000000
Si       2.71557558      -0.00131949       2.71240845       0.00000000
