10
Lattice="16.28999089631971 0.0 0.0 0.0 16.28999089631971 0.0 0.0 0.0 34.45770212530097" Properties=species:S:1:pos:R:3:initial_magmoms:R:1 pbc="T T T"
Si      -1.34210052      -1.37204154      -1.35419534       0.00000000
Si       1.36058160      -1.35462753       1.35877133       0.00000000
Si      -1.35695700       1.36076886       1.36004626       0.00000000
Si       1.36840887       1.37455020      -1.36286835       0.00000000
Si      -2.53651590       0.06235812      -2.71644001       0.00000000
Si       0.09690921      -2.56774383      -2.84271722       0.00000000
Si      -2.71595025      -2.71191033       0.00279108       0.00000000
Si      -2.71293660       0.00149868       2.71706025       0.00000000
Si       0.00188964      -2.71339272       2.71688796       0.00000000
Si      -2.71363707       2.71777473       0.00461733       0.00000000
