10
Lattice="16.28999089631971 0.0 0.0 0.0 16.28999089631971 0.0 0.0 0.0 34.45770212530097" Properties=species:S:1:pos:R:3:initial_magmoms:R:1 pbc="T T T"
Si       1.29389841      -1.33550307       1.48135123       0.00000000
Si       0.88925481       1.92016487      -1.09921957       0.00000000
Si      -0.86312565      -1.83936906      -1.31949439       0.00000000
Si      -1.43203761       1.34061522       1.47437698       0.00000000
Si       2.67992233      -2.52415179       0.00302194       0.00000000
Si      -2.61102636      -2.64769515       0.12777957       0.00000000
Si      -1.01994948       3.33426068      -1.32263004       0.00000000
Si      -2.83294503       2.63256893       0.09070306       0.00000000
Si       2.64053799       0.00778662       2.84832004       0.00000000
Si       0.94068234      -3.53115072      -1.34912803       0.00000000
