10
Lattice="16.28999089631971 0.0 0.0 0.0 16.28999089631971 0.0 0.0 0.0 34.45770212530097" Properties=species:S:1:pos:R:3:initial_magmoms:R:1 pbc="T T T"
Si       0.70841789       1.35321030      -1.81344096       0.00000000
Si       0.97839206      -2.03346441       0.91909080       0.00000000
Si      -1.53547164      -0.40309605      -1.91750328       0.00000000
Si      -0.84448826       1.99399374       1.42868604       0.00000000
Si      -0.12515933      -1.72840158       2.99568538       0.00000000
Si      -3.06334332       0.55641753       1.66851178       0.00000000
Si      -2.39455737      -1.63970253       2.40280583       0.00000000
Si       1.12117391       3.51495846       1.08221366       0.00000000
Si       3.88197053      -0.37411614      -0.43616584       0.00000000
Si       0.91435607       3.65632308      -1.24823096       0.00000000
