10
Lattice="16.28999089631971 0.0 0.0 0.0 16.28999089631971 0.0 0.0 0.0 34.45770212530097" Properties=species:S:1:pos:R:3:initial_magmoms:R:1 pbc="T T T"
Si       1.35540945       1.33978734       1.38826025       0.00000000
Si      -1.35930928      -1.37557647       1.38729543       0.00000000
Si       1.49234319      -1.24611984      -1.44649724       0.00000000
Si      -1.32213061       1.52552592      -1.45080101       0.00000000
Si       2.72494233       2.69335602      -0.00162985       0.00000000
Si      -2.70815453       2.71417464       0.02752827       0.00000000
Si       2.70860346      -2.71790505       0.02764543       0.00000000
Si      -2.73009716      -2.71124244       0.02681500       0.00000000
Si      -0.00275301       2.70039330       2.74872000       0.00000000
Si       2.71412577      -0.01677870       2.74958144       0.00000000
