10
Lattice="16.28999089631971 0.0 0.0 0.0 16.28999089631971 0.0 0.0 0.0 34.45770212530097" Properties=species:S:1:pos:R:3:initial_magmoms:R:1 pbc="T T T"
Si       1.35654975       1.35731538       1.35742748       0.00000000
Si      -1.35885316      -1.35770634       1.35735856       0.00000000
Si       1.35710361      -1.35668007      -1.36028747       0.00000000
Si      -1.35836446       1.35581670      -1.36287180       0.00000000
Si       2.71342530       0.00013032       2.71402797       0.00000000
Si      -2.71357064      -2.71508688       0.00024120       0.00000000
Si       2.71379997      -2.71495656       0.00055132       0.00000000
Si      -0.00128691      -2.71476108       2.71444146       0.00000000
Si      -0.00118917       2.71490769       2.71447592       0.00000000
Si       2.71507059       2.71461447      -0.00058578       0.00000000
