10
Lattice="16.28999089631971 0.0 0.0 0.0 16.28999089631971 0.0 0.0 0.0 34.45770212530097" Properties=species:S:1:pos:R:3:initial_magmoms:R:1 pbc="T T T"
Si       0.44385379       0.18142173       2.29870905       0.00000000
Si      -0.62834490       2.28356478      -0.26684059       0.00000000
Si      -1.82290689      -1.53891630      -0.05778560       0.00000000
Si       1.94759998      -0.81655254      -1.19344318       0.00000000
Si       1.54361776       3.21110109      -0.59153570       0.00000000
Si      -2.45088639      -1.58026032       2.32730896       0.00000000
Si       0.90595874      -1.94702967       3.05264399       0.00000000
Si      -1.26044577       2.52574821      -2.53429649       0.00000000
Si       2.36307643       1.50576615       2.65775851       0.00000000
Si       3.25132126       2.04170715       0.56214327       0.00000000
