10
Lattice="16.28999089631971 0.0 0.0 0.0 16.28999089631971 0.0 0.0 0.0 34.45770212530097" Properties=species:S:1:pos:R:3:initial_magmoms:R:1 pbc="T T T"
Si      -1.35131903      -1.34860023       1.35770314       0.00000000
Si      -1.35653020       1.35602847      -1.35622146       0.00000000
Si       1.35760860      -1.35886293      -1.35801326       0.00000000
Si       1.34711784       1.35193968       1.38175463       0.00000000
Si       2.66631462      -0.14385699       2.67957025       0.00000000
Si      -0.13530474       2.65800672       2.75975336       0.00000000
Si      -0.00014661       2.71427321      -2.71506170       0.00000000
Si       2.71518462      -0.00141723      -2.71502724       0.00000000
Si      -2.71545228      -0.00083079      -2.71506170       0.00000000
Si       0.00019548      -2.71624347      -2.71499278       0.00000000
