10
Lattice="10.86 0.0 0.0 0.0 10.86 0.0 0.0 0.0 10.86" Properties=species:S:1:pos:R:3:initial_magmoms:R:1 pbc="T T T"
Si      -1.18450020       1.34334942      -1.34428338       0.00000000
Si      -1.18450020      -1.37165058       1.37071662       0.00000000
Si       1.53049980       1.34334942       1.37071662       0.00000000
Si       0.15461382       2.45331744      -2.73081216       0.00000000
Si      -2.54200020       2.70084942       0.01321662       0.00000000
Si      -2.54200020      -0.01415058      -2.70178338       0.00000000
Si      -2.54200020      -0.01415058       2.72821662       0.00000000
Si      -2.54200020      -2.72915058       0.01321662       0.00000000
Si       0.98868354      -3.28885326      -1.66011390       0.00000000
Si       0.17299980       2.70084942       2.72821662       0.00000000
