10
Lattice="10.86 0.0 0.0 0.0 10.86 0.0 0.0 0.0 10.86" Properties=species:S:1:pos:R:3:initial_magmoms:R:1 pbc="T T T"
Si      -1.33911402      -1.10996802       1.38652878       0.00000000
Si       1.26265962      -1.78442832      -0.98363364       0.00000000
Si      -1.33911402       1.60503198      -1.32847122       0.00000000
Si       1.37588598       1.60503198       1.38652878       0.00000000
Si       2.56354644       0.05358324      -2.08274166       0.00000000
Si       0.03107046      -2.31717648      -2.73870738       0.00000000
Si      -2.69661402      -2.46746802       0.02902878       0.00000000
Si      -0.15461382      -2.45331744       2.73081216       0.00000000
Si      -2.69661402       0.24753198      -2.68597122       0.00000000
Si      -2.69661402       0.24753198       2.74402878       0.00000000
