10
Lattice="16.28999089631971 0.0 0.0 0.0 16.28999089631971 0.0 0.0 0.0 34.281931910070035" Properties=species:S:1:pos:R:3:initial_magmoms:R:1 pbc="T T T"
Si      -1.35178330      -1.36363183       1.39162781       0.00000000
Si       1.36344042       1.35354736       1.39018797       0.00000000
Si       1.41703452      -1.33401661      -1.43371919       0.00000000
Si      -1.34537970       1.35179455      -1.51549193       0.00000000
Si       2.71119357      -2.70330514       0.04510133       0.00000000
Si      -2.71348136       2.70635041       0.00294139       0.00000000
Si      -2.71063061      -2.71192255      -0.00948924       0.00000000
Si       2.72702745       2.71467460       0.00131986       0.00000000
Si      -2.70949133      -0.00452872       2.75183278       0.00000000
Si       0.00544086       2.70993421       2.75193563       0.00000000
