10
Lattice="16.28999089631971 0.0 0.0 0.0 16.28999089631971 0.0 0.0 0.0 34.281931910070035" Properties=species:S:1:pos:R:3:initial_magmoms:R:1 pbc="T T T"
Si       0.67878801      -1.60871895      -1.52211863       0.00000000
Si      -0.17328325       2.07832707      -1.15029659       0.00000000
Si      -1.92320459      -0.64914021       1.27710552       0.00000000
Si       1.80353106       0.03440448       1.59647618       0.00000000
Si       0.30327093      -3.64229739      -0.30346383       0.00000000
Si      -1.59417279       3.34062681       0.27274720       0.00000000
Si      -0.82876515      -1.49157756      -3.33786217       0.00000000
Si       2.03312232       2.54998773      -1.94604923       0.00000000
Si       2.54288529       2.24723808       1.89027250       0.00000000
Si      -2.40701759       0.92991465       3.02219396       0.00000000
