10
Lattice="16.28999089631971 0.0 0.0 0.0 16.28999089631971 0.0 0.0 0.0 34.281931910070035" Properties=species:S:1:pos:R:3:initial_magmoms:R:1 pbc="T T T"
Si      -1.34889345      -1.35545669       1.34512091       0.00000000
Si      -1.35469269       1.35664490      -1.35732529       0.00000000
Si       1.35870003      -1.35662957      -1.35756526       0.00000000
Si       1.35804843       1.36461234       1.36795269       0.00000000
Si       0.09842418      -2.40169823       2.82253588       0.00000000
Si      -2.61718398       0.11735285       2.65517139       0.00000000
Si       2.71046052       2.71677357       0.00191979       0.00000000
Si      -2.71283886      -0.00150538      -2.71482199       0.00000000
Si       0.00185706       2.71395540      -2.71513052       0.00000000
Si      -2.71575477       2.71429749       0.00527942       0.00000000
