10
Lattice="16.28999089631971 0.0 0.0 0.0 16.28999089631971 0.0 0.0 0.0 34.281931910070035" Properties=species:S:1:pos:R:3:initial_magmoms:R:1 pbc="T T T"
Si       1.55862720      -1.14974820       1.32400323       0.00000000
Si       1.35241209       1.35216122      -1.36603290       0.00000000
Si      -1.35804843      -1.36461234      -1.36795269       0.00000000
Si      -1.25478612       1.41360710       1.49469307       0.00000000
Si      -0.08957871      -2.10543104       2.67646048       0.00000000
Si       0.72223344       2.26710536       2.86631393       0.00000000
Si      -2.70386307       2.71131737       0.02115196       0.00000000
Si      -2.70694188      -2.72006903      -0.02283178       0.00000000
Si       0.00231318       2.70794534      -2.72613503       0.00000000
Si      -2.71274112      -0.00796744      -2.72527798       0.00000000
