10
Lattice="16.28999089631971 0.0 0.0 0.0 16.28999089631971 0.0 0.0 0.0 34.281931910070035" Properties=species:S:1:pos:R:3:initial_magmoms:R:1 pbc="T T T"
Si      -1.71701487      -1.07900073       1.24731451       0.00000000
Si       1.25478612      -1.41360710      -1.49469307       0.00000000
Si      -1.44907695       1.29771027      -1.47354110       0.00000000
Si       1.97701956       0.85349826       1.37162086       0.00000000
Si       2.81341332      -2.56335530      -0.17068983       0.00000000
Si      -2.72044629      -2.66086659      -0.20747437       0.00000000
Si       2.68398927       2.73411360       0.03808725       0.00000000
Si       2.60719821      -0.06144588      -2.86072597       0.00000000
Si      -0.50007042      -2.58743681       2.83566586       0.00000000
Si      -0.45287829      -0.33954876       3.83512187       0.00000000
