10
Lattice="16.28999089631971 0.0 0.0 0.0 16.28999089631971 0.0 0.0 0.0 34.281931910070035" Properties=species:S:1:pos:R:3:initial_magmoms:R:1 pbc="T T T"
Si       1.39934358      -0.86215314       1.62715853       0.00000000
Si      -1.01131578      -1.87129650      -0.94954148       0.00000000
Si       1.27956321       1.39659872      -1.45029794       0.00000000
Si      -1.94209380       0.82011191       1.23147625       0.00000000
Si       1.17138132       1.04944252       2.99692816       0.00000000
Si       0.40185801       3.39552833      -0.54765417       0.00000000
Si      -1.64667465      -2.83980216       1.16894597       0.00000000
Si      -2.34053091      -0.74322148      -2.68767068       0.00000000
Si       0.84165543       3.14917465       1.80004240       0.00000000
Si       0.11722284      -2.49406320       2.77800362       0.00000000
