10
Lattice="16.28999089631971 0.0 0.0 0.0 16.28999089631971 0.0 0.0 0.0 34.281931910070035" Properties=species:S:1:pos:R:3:initial_magmoms:R:1 pbc="T T T"
Si      -1.86375519      -0.33516675       1.35228584       0.00000000
Si       0.22796226      -1.91159566      -1.36976964       0.00000000
Si       2.01618072      -0.28049751       1.19966260       0.00000000
Si      -0.32972589       2.09973213      -1.19688576       0.00000000
Si      -1.17138132      -1.04944252      -2.99692816       0.00000000
Si       1.91128941       2.76252336      -0.66301293       0.00000000
Si       3.32066763       0.79619004      -0.39921332       0.00000000
Si      -1.45658664       1.14433992       3.05006519       0.00000000
Si      -3.11347512      -0.22933062      -1.76545192       0.00000000
Si      -1.77637563      -2.58441569       1.94474652       0.00000000
