10
Lattice="16.28999089631971 0.0 0.0 0.0 16.28999089631971 0.0 0.0 0.0 34.281931910070035" Properties=species:S:1:pos:R:3:initial_magmoms:R:1 pbc="T T T"
Si       1.35698958      -1.35669636       1.35780524       0.00000000
Si       1.35817875       1.35839052      -1.35629683       0.00000000
Si      -1.35764118       1.35769005       1.35756526       0.00000000
Si      -1.35822762      -1.35788553      -1.35828518       0.00000000
Si      -2.71322982       0.00154755       2.71307361       0.00000000
Si       0.00125433      -2.71371852       2.71451345       0.00000000
Si      -2.71459818      -2.71482624       0.00000000       0.00000000
Si       2.71471221      -2.71511946       0.00037710       0.00000000
Si       2.71516833       2.71538010       0.00003428       0.00000000
Si       2.71161711      -0.00057015      -2.71897010       0.00000000
