10
Lattice="16.28999089631971 0.0 0.0 0.0 16.28999089631971 0.0 0.0 0.0 34.281931910070035" Properties=species:S:1:pos:R:3:initial_magmoms:R:1 pbc="T T T"
Si       2.24101530       0.66279123       0.53387282       0.00000000
Si      -0.43979742       0.24635367      -2.34769657       0.00000000
Si      -1.46613258       1.49571522       1.21450668       0.00000000
Si       0.32972589      -2.09973213       1.19688576       0.00000000
Si      -0.48164643       1.11483873       3.27536617       0.00000000
Si       1.69209117       1.75218498       2.57752277       0.00000000
Si      -2.78374923      -2.32906275      -0.56856616       0.00000000
Si       0.43790778      -1.75257594      -3.25034034       0.00000000
Si      -0.84165543      -3.14917465      -1.80004240       0.00000000
Si       0.50901363       2.42271396      -2.81681079       0.00000000
