10
Lattice="16.28999089631971 0.0 0.0 0.0 16.28999089631971 0.0 0.0 0.0 34.281931910070035" Properties=species:S:1:pos:R:3:initial_magmoms:R:1 pbc="T T T"
Si       0.75859272      -1.16179533      -1.90377959       0.00000000
Si      -2.20832846      -0.68826132       0.45499005       0.00000000
Si       1.32921513      -1.12807503       1.73812920       0.00000000
Si       0.72461178       2.33688032      -0.74823786       0.00000000
Si       2.34053091       0.74322148       2.68767068       0.00000000
Si       3.01643559      -0.41694255      -2.06713309       0.00000000
Si       3.06362772       1.83094550      -1.06767708       0.00000000
Si      -2.49216542      -0.38794472       2.76970739       0.00000000
Si      -3.83346773       0.67432944      -0.73329093       0.00000000
Si       0.52488009      -3.46622760      -1.96627559       0.00000000
