10
Lattice="16.28999089631971 0.0 0.0 0.0 16.28999089631971 0.0 0.0 0.0 34.281931910070035" Properties=species:S:1:pos:R:3:initial_magmoms:R:1 pbc="T T T"
Si       1.14833097       1.62127854      -1.28245351       0.00000000
Si      -0.54892413       1.08939375       2.04364995       0.00000000
Si      -2.24101530      -0.66279123      -0.53387282       0.00000000
Si       1.40937822      -1.96633332       0.26379961       0.00000000
Si      -1.91128941      -2.76252336       0.66301293       0.00000000
Si       3.29686794       1.28857158      -0.30606926       0.00000000
Si       0.10489131      -3.04302087       1.86267553       0.00000000
Si       0.12883761       3.69611955      -0.68543333       0.00000000
Si      -0.49844142       3.41886375       1.54663022       0.00000000
Si      -3.70714788       0.83292399       0.68063386       0.00000000
