10
Lattice="16.28999089631971 0.0 0.0 0.0 16.28999089631971 0.0 0.0 0.0 34.281931910070035" Properties=species:S:1:pos:R:3:initial_magmoms:R:1 pbc="T T T"
Si      -1.35356868       1.35681039      -1.36521014       0.00000000
Si      -1.35198855      -1.35003375       1.37422629       0.00000000
Si       1.36197432      -1.35951453      -1.36359889       0.00000000
Si       1.35728280       1.37438730       1.39064735       0.00000000
Si      -2.71347417       2.70948312      -0.00767916       0.00000000
Si       2.71700910       2.70883152      -0.00308538       0.00000000
Si      -2.71292031      -2.71790505      -0.00709636       0.00000000
Si      -2.71181259      -0.00301365      -2.72239830       0.00000000
Si       0.00340461       2.71212210      -2.72263827       0.00000000
Si       2.72026710      -2.71948518      -0.00442237       0.00000000
