10
Lattice="16.28999089631971 0.0 0.0 0.0 16.28999089631971 0.0 0.0 0.0 34.281931910070035" Properties=species:S:1:pos:R:3:initial_magmoms:R:1 pbc="T T T"
Si      -0.62727903      -0.27725580       2.23206355       0.00000000
Si      -2.11271526      -0.28015542      -0.96500264       0.00000000
Si       1.01949336      -2.07484101      -0.59702018       0.00000000
Si       0.96580152       2.17026783      -0.24443031       0.00000000
Si       3.18814848       1.48954131      -0.25972006       0.00000000
Si       0.55791621      -2.11879143      -2.93504924       0.00000000
Si      -0.12883761      -3.69611955       0.68543333       0.00000000
Si      -3.64606038      -0.58288878       0.78197130       0.00000000
Si      -1.86083928      -1.93619682      -2.66525029       0.00000000
Si      -2.71235016       0.68717736       2.59672067       0.00000000
