10
Lattice="16.28999089631971 0.0 0.0 0.0 16.28999089631971 0.0 0.0 0.0 34.281931910070035" Properties=species:S:1:pos:R:3:initial_magmoms:R:1 pbc="T T T"
Si       2.10562911       0.35551296       1.00312417       0.00000000
Si      -2.02590585       1.12099635       0.51148671       0.00000000
Si       0.68323518       0.66288897      -2.17231011       0.00000000
Si      -0.26125902      -2.33186463       0.54069493       0.00000000
Si      -3.40583175       0.10210572      -1.14796541       0.00000000
Si      -2.44581318       0.34956711       2.70090351       0.00000000
Si       3.53313810      -0.78604137      -0.65670505       0.00000000
Si       0.53452377      -3.36741993      -1.39273854       0.00000000
Si       1.85152140      -1.02672612       3.11890334       0.00000000
Si      -0.64233099      -0.36945720      -3.71979738       0.00000000
