10
Lattice="16.28999089631971 0.0 0.0 0.0 16.28999089631971 0.0 0.0 0.0 34.281931910070035" Properties=species:S:1:pos:R:3:initial_magmoms:R:1 pbc="T T T"
Si       1.37523438      -1.32908481      -1.28680389       0.00000000
Si       1.36326123       1.34087877       1.34854911       0.00000000
Si      -1.34688978      -1.37344248       1.34734924       0.00000000
Si      -1.29415905       1.36928853      -1.47882052       0.00000000
Si      -2.10999483      -0.54016011      -2.63226419       0.00000000
Si       2.21434857       0.35652294      -2.65214155       0.00000000
Si      -0.33749622      -2.40396417      -2.50389954       0.00000000
Si       0.55887732       2.18779587      -2.76526586       0.00000000
Si       0.01137042       2.69867583       2.70693714       0.00000000
Si      -2.70430290      -0.01842399       2.70789703       0.00000000
