10
Lattice="16.28999089631971 0.0 0.0 0.0 16.28999089631971 0.0 0.0 0.0 34.281931910070035" Properties=species:S:1:pos:R:3:initial_magmoms:R:1 pbc="T T T"
Si       1.35207000       1.34534616       1.37405831       0.00000000
Si      -1.36528119      -1.36943514       1.36727048       0.00000000
Si       1.30663719      -1.40230836      -1.39198777       0.00000000
Si      -1.27348704       1.36507172      -1.51076445       0.00000000
Si      -2.16966510      -0.52251804      -2.74654449       0.00000000
Si      -0.51419385      -2.35379097      -2.63342018       0.00000000
Si       2.70433548       2.68624448      -0.00148098       0.00000000
Si      -2.71270854       2.70766583      -0.02506011       0.00000000
Si      -0.00200367       2.70286028       2.72709835       0.00000000
Si       2.71107954      -0.01009105       2.72672125       0.00000000
