10
Lattice="16.28999089631971 0.0 0.0 0.0 16.28999089631971 0.0 0.0 0.0 34.281931910070035" Properties=species:S:1:pos:R:3:initial_magmoms:R:1 pbc="T T T"
Si       0.80164719      -1.30409595       1.81060125       0.00000000
Si       1.10871369       2.09794742      -0.34292236       0.00000000
Si      -2.16858996       0.70261443       0.74971199       0.00000000
Si       0.74086920      -1.52469513      -1.70295592       0.00000000
Si       2.98716246      -1.60647093      -1.04412538       0.00000000
Si       0.42844329       0.10261071       3.67999604       0.00000000
Si       0.06551838       2.81179151      -2.45451913       0.00000000
Si       3.07134918      -1.75311351       1.29674908       0.00000000
Si       0.92411541       3.41040014       1.72026830       0.00000000
Si      -0.08632071      -3.75054444      -1.30864492       0.00000000
