10
Lattice="16.28999089631971 0.0 0.0 0.0 16.28999089631971 0.0 0.0 0.0 34.281931910070035" Properties=species:S:1:pos:R:3:initial_magmoms:R:1 pbc="T T T"
Si       0.77020749       1.84746845      -1.17447359       0.00000000
Si       1.47325131      -1.19851495       1.37648547       0.00000000
Si      -1.24662483       1.50275576       1.38259109       0.00000000
Si      -1.15246863      -1.54669056      -1.51550705       0.00000000
Si      -0.16565301       1.25733062      -3.28688974       0.00000000
Si      -2.29120479       0.26329201      -2.68071628       0.00000000
Si      -2.64432312      -2.58579708      -0.00791570       0.00000000
Si       2.75722911      -2.51337174      -0.19622646       0.00000000
Si       0.11634318      -2.55144147       2.74921707       0.00000000
Si      -2.59889031       0.16185744       2.75813038       0.00000000
