10
Lattice="16.28999089631971 0.0 0.0 0.0 16.28999089631971 0.0 0.0 0.0 34.281931910070035" Properties=species:S:1:pos:R:3:initial_magmoms:R:1 pbc="T T T"
Si       0.11059281      -1.58508299       1.64632214       0.00000000
Si       0.42590205       2.06650688       0.98306923       0.00000000
Si      -2.30159781      -0.17288660      -0.52547375       0.00000000
Si       1.61718975      -0.40365074      -1.73380968       0.00000000
Si       0.26689536       3.13620602      -1.17576808       0.00000000
Si      -1.92839391      -1.57959326      -2.39486854       0.00000000
Si       1.71468540       1.83197975      -2.50971307       0.00000000
Si       0.34130808      -2.02861082      -2.90872070       0.00000000
Si      -1.58687406      -1.03708739       3.17762833       0.00000000
Si       2.29527729      -1.68370265       2.45187942       0.00000000
