10
Lattice="16.28999089631971 0.0 0.0 0.0 16.28999089631971 0.0 0.0 0.0 34.281931910070035" Properties=species:S:1:pos:R:3:initial_magmoms:R:1 pbc="T T T"
Si      -1.35353610      -1.33201701       1.38104840       0.00000000
Si      -1.35413883       1.35726651      -1.35729101       0.00000000
Si       1.35988920      -1.35601218      -1.35893654       0.00000000
Si       1.34602641       1.36244673       1.37727738       0.00000000
Si       2.70207117      -0.08588088       2.69188736       0.00000000
Si      -2.71068858       2.71419093       0.00178266       0.00000000
Si      -2.71336014       0.00146610      -2.71598757       0.00000000
Si      -2.71899648      -2.71134018       0.00082277       0.00000000
Si       0.00257382      -2.71423980      -2.71667321       0.00000000
Si       0.00169416       2.71555929      -2.71615898       0.00000000
