10
Lattice="16.28999089631971 0.0 0.0 0.0 16.28999089631971 0.0 0.0 0.0 34.281931910070035" Properties=species:S:1:pos:R:3:initial_magmoms:R:1 pbc="T T T"
Si       1.35353610       1.33201701      -1.38104840       0.00000000
Si       1.32361137      -1.34338743       1.45214917       0.00000000
Si      -1.36546038      -1.37932317      -1.38022563       0.00000000
Si      -1.28866932       1.41623631       1.51858759       0.00000000
Si      -1.99563903      -0.46437903       2.85212120       0.00000000
Si      -0.31390830      -2.28802824       2.97875873       0.00000000
Si       2.69956251       2.69446374      -0.00377101       0.00000000
Si      -2.72743470       2.68460829       0.00983892       0.00000000
Si      -0.00060273       2.68928352      -2.73833941       0.00000000
Si      -2.71787247      -2.73148439      -0.01419273       0.00000000
