10
Lattice="16.28999089631971 0.0 0.0 0.0 16.28999089631971 0.0 0.0 0.0 34.281931910070035" Properties=species:S:1:pos:R:3:initial_magmoms:R:1 pbc="T T T"
Si      -0.35363961      -2.27770038      -0.26170841       0.00000000
Si       2.24474571       0.65068776      -0.23884235       0.00000000
Si      -0.53897094       0.97590132      -2.14101069       0.00000000
Si      -0.85485033       0.51885279       2.23665733       0.00000000
Si      -0.07897392       3.11885082      -1.29901169       0.00000000
Si      -2.42646066      -2.27900358      -1.57114182       0.00000000
Si       2.99678985      -0.35394912      -2.18616002       0.00000000
Si       2.18514060       2.95425666      -0.73346234       0.00000000
Si      -3.15742554       0.10823076       2.03874763       0.00000000
Si       3.24754182       0.44357670       1.84292913       0.00000000
