10
Lattice="16.28999089631971 0.0 0.0 0.0 16.28999089631971 0.0 0.0 0.0 34.281931910070035" Properties=species:S:1:pos:R:3:initial_magmoms:R:1 pbc="T T T"
Si       0.82811844       1.83827763       1.23281808       0.00000000
Si       1.46241846      -1.88643087       0.21141340       0.00000000
Si      -1.83612735      -0.84548358       1.32074100       0.00000000
Si       0.65573766      -0.32798286      -2.76127403       0.00000000
Si       0.52655796      -2.47656870      -1.90100275       0.00000000
Si       2.16104769       0.50228586       2.76103204       0.00000000
Si      -0.55441386      -2.23114356       2.76847808       0.00000000
Si       3.34933803      -0.96340689       1.30130313       0.00000000
Si       2.62288548       2.80412802      -0.14645249       0.00000000
Si      -3.22506162      -2.09631123      -0.21292520       0.00000000
