10
Lattice="16.28999089631971 0.0 0.0 0.0 16.28999089631971 0.0 0.0 0.0 34.281931910070035" Properties=species:S:1:pos:R:3:initial_magmoms:R:1 pbc="T T T"
Si       1.35698958       1.35698958       1.35633111       0.00000000
Si      -1.35817875      -1.35839052       1.35629683       0.00000000
Si       1.35343836      -1.35896067      -1.36267327       0.00000000
Si      -1.36005210       1.35770634      -1.36479875       0.00000000
Si       2.71386513      -0.00099369       2.71393066       0.00000000
Si      -0.00047241       2.71410948       2.71461630       0.00000000
Si       2.71386513       2.71511946      -0.00253686       0.00000000
Si      -0.00118917      -2.71508688       2.71410207       0.00000000
Si      -2.71581993      -0.00070047       2.71386209       0.00000000
Si       2.71479366      -2.71647153      -0.00078848       0.00000000
