10
Lattice="16.28999089631971 0.0 0.0 0.0 16.28999089631971 0.0 0.0 0.0 34.281931910070035" Properties=species:S:1:pos:R:3:initial_magmoms:R:1 pbc="T T T"
Si       1.35804843       1.35778779       1.35615970       0.00000000
Si      -1.35687555       1.35798327      -1.35759954       0.00000000
Si      -1.35583299      -1.35829278       1.35886798       0.00000000
Si       1.35847197      -1.35734796      -1.35753098       0.00000000
Si      -2.71386513       0.00099369      -2.71393066       0.00000000
Si      -0.00213399       2.71288773       2.71605614       0.00000000
Si      -2.71505430      -2.71409319       0.00017141       0.00000000
Si      -2.71433754       2.71510317       0.00068564       0.00000000
Si       0.00092853      -2.71547784      -2.71471914       0.00000000
Si      -2.71238274      -0.00136836       2.71794164       0.00000000
