10
Lattice="16.28999089631971 0.0 0.0 0.0 16.28999089631971 0.0 0.0 0.0 34.281931910070035" Properties=species:S:1:pos:R:3:initial_magmoms:R:1 pbc="T T T"
Si      -1.02152961      -1.77495840       1.33665327       0.00000000
Si       1.31352786      -1.37526696      -1.54666450       0.00000000
Si      -1.39949019       1.32815628      -1.51457660       0.00000000
Si       1.34366436       1.50905673       1.54138508       0.00000000
Si       0.86402160      -3.33650151       1.32160350       0.00000000
Si       2.68778484      -2.62989018      -0.13832767       0.00000000
Si      -1.60523289      -0.32733126       3.45935740       0.00000000
Si       2.78225055       2.70379791       0.06362730       0.00000000
Si      -2.77570197      -2.71795392      -0.05269136       0.00000000
Si      -0.18736758       3.13538517       2.32681886       0.00000000
