10
Lattice="16.28999089631971 0.0 0.0 0.0 16.28999089631971 0.0 0.0 0.0 34.281931910070035" Properties=species:S:1:pos:R:3:initial_magmoms:R:1 pbc="T T T"
Si       1.93886838       0.44538489       1.36383886       0.00000000
Si       1.03838976      -0.59375421      -2.10336911       0.00000000
Si      -1.14095160      -2.04252165       0.73829610       0.00000000
Si      -1.03345389       2.30866767      -0.44110586       0.00000000
Si       2.20017627       1.55080800      -2.08218286       0.00000000
Si      -0.67937445      -1.99857123       3.07632516       0.00000000
Si       3.19865553       1.95336648       0.10452567       0.00000000
Si       0.76507614       3.37113405      -1.55756616       0.00000000
Si      -2.68762194       1.79792730      -2.05636855       0.00000000
Si       3.08687355      -1.68756255      -1.57457001       0.00000000
