10
Lattice="16.28999089631971 0.0 0.0 0.0 16.28999089631971 0.0 0.0 0.0 34.281931910070035" Properties=species:S:1:pos:R:3:initial_magmoms:R:1 pbc="T T T"
Si       2.27616912      -0.26265996      -0.47929596       0.00000000
Si      -1.06359039      -1.79092260      -1.08186981       0.00000000
Si      -0.82396449       2.18356047      -0.29643603       0.00000000
Si      -0.21460446      -0.70835436       2.26901950       0.00000000
Si       3.15470511       0.72638739       1.46767889       0.00000000
Si      -0.62371152      -3.54506238       0.39921332       0.00000000
Si      -3.28593735      -1.11019608      -1.06658006       0.00000000
Si      -0.90815121       2.33020305      -2.63731050       0.00000000
Si       2.00619495      -0.61612038       2.98352392       0.00000000
Si       2.89618281      -2.54073501      -0.60524785       0.00000000
