10
Lattice="16.28999089631971 0.0 0.0 0.0 16.28999089631971 0.0 0.0 0.0 34.281931910070035" Properties=species:S:1:pos:R:3:initial_magmoms:R:1 pbc="T T T"
Si      -1.40041872       1.13037939       1.46620477       0.00000000
Si       2.22079941       0.09223398       0.71450442       0.00000000
Si      -1.05205707      -2.11133061       0.24600728       0.00000000
Si       0.21460446       0.70835436      -2.26901950       0.00000000
Si      -0.40910706      -2.83670802      -1.86980618       0.00000000
Si      -3.44199555       0.52178499       0.50918982       0.00000000
Si       2.83489983      -2.12951025       0.64055826       0.00000000
Si      -0.84898593      -1.08256824      -3.35088931       0.00000000
Si       2.49077358       0.44569440      -2.74831545       0.00000000
Si       2.27110293       1.13264370       2.74677277       0.00000000
