10
Lattice="16.28999089631971 0.0 0.0 0.0 16.28999089631971 0.0 0.0 0.0 34.281931910070035" Properties=species:S:1:pos:R:3:initial_magmoms:R:1 pbc="T T T"
Si      -1.87792749       1.09610523       0.73661628       0.00000000
Si       2.04157683       0.60859440       0.95701495       0.00000000
Si      -0.33940215       0.65754585      -2.22572139       0.00000000
Si       0.10314828      -2.33880417       0.17919176       0.00000000
Si       3.44199555      -0.52178499      -0.50918982       0.00000000
Si       2.38993848      -2.63311560      -0.26318254       0.00000000
Si      -3.52153962      -0.01703934      -0.77360651       0.00000000
Si      -0.89826318       3.27811815       1.21930615       0.00000000
Si       2.12765319      -0.34784037       3.14588324       0.00000000
Si      -1.22241789      -3.37115034      -1.36829551       0.00000000
