10
Lattice="16.28999089631971 0.0 0.0 0.0 16.28999089631971 0.0 0.0 0.0 34.281931910070035" Properties=species:S:1:pos:R:3:initial_magmoms:R:1 pbc="T T T"
Si      -1.28746386      -1.36896273       1.46230832       0.00000000
Si       1.28431989       1.29909492       1.54892510       0.00000000
Si       1.83000231      -0.68841540      -1.43507675       0.00000000
Si       2.66022216       2.38347135      -0.05697660       0.00000000
Si       0.76110138       3.20756616      -1.49527586       0.00000000
Si      -2.78966250      -2.33722404      -0.05114867       0.00000000
Si       2.55034611      -0.12256596       2.95223277       0.00000000
Si      -0.15903927       2.59164126       2.94742986       0.00000000
Si      -1.58451201      -3.05253423      -2.00306012       0.00000000
Si      -1.44296820       2.41054533      -2.88444908       0.00000000
