10
Lattice="16.28999089631971 0.0 0.0 0.0 16.28999089631971 0.0 0.0 0.0 34.281931910070035" Properties=species:S:1:pos:R:3:initial_magmoms:R:1 pbc="T T T"
Si      -2.01010455      -1.05514728       0.60836750       0.00000000
Si      -0.36069318       1.71430421       1.60549233       0.00000000
Si       1.62513927      -1.36259075       1.18828099       0.00000000
Si      -0.15170877       0.61492469      -2.55664506       0.00000000
Si       0.10780722       3.23859209      -0.13061423       0.00000000
Si       0.77037039      -3.44601659       0.44545967       0.00000000
Si      -1.71727551      -3.27112715      -0.14093310       0.00000000
Si      -3.79721529       0.36370031      -0.13544799       0.00000000
Si       0.90220536       1.18979879       3.51413996       0.00000000
Si      -2.04703398      -1.37875043       2.93799749       0.00000000
