10
Lattice="16.28999089631971 0.0 0.0 0.0 16.28999089631971 0.0 0.0 0.0 34.281931910070035" Properties=species:S:1:pos:R:3:initial_magmoms:R:1 pbc="T T T"
Si       1.53385241       1.13497806       1.37755648       0.00000000
Si      -1.26283338      -1.53969075       1.33912984       0.00000000
Si      -0.83668698       1.42281584      -1.77841049       0.00000000
Si       0.50668157       0.12629311      -3.24824915       0.00000000
Si      -0.51955326      -2.02466034      -2.84403066       0.00000000
Si       0.16575075       2.48953391       2.89598980       0.00000000
Si      -2.54681118      -0.22483396       2.91184177       0.00000000
Si       2.79019097       0.50484828      -2.75201790       0.00000000
Si       2.90453048       2.71231595       0.25353084       0.00000000
Si      -2.44159407      -3.15003870      -0.08861884       0.00000000
