10
Lattice="16.28999089631971 0.0 0.0 0.0 16.28999089631971 0.0 0.0 0.0 34.281931910070035" Properties=species:S:1:pos:R:3:initial_magmoms:R:1 pbc="T T T"
Si       0.87555492       1.70839746       1.49809868       0.00000000
Si      -1.79476704      -0.96585039       1.37927058       0.00000000
Si       1.72457343      -1.98462699       0.11395321       0.00000000
Si       0.66903030      -0.42358887      -2.71825018       0.00000000
Si      -1.18242594       2.55635712      -1.46973581       0.00000000
Si       2.25897838       0.40218381       2.91901013       0.00000000
Si      -0.46183779      -2.30184216       2.90748453       0.00000000
Si       2.58385694       2.70360243       0.24899773       0.00000000
Si      -2.62288548      -2.80412802       0.14645249       0.00000000
Si       1.00494639       3.55363092      -1.35927936       0.00000000
