10
Lattice="16.28999089631971 0.0 0.0 0.0 16.28999089631971 0.0 0.0 0.0 34.281931910070035" Properties=species:S:1:pos:R:3:initial_magmoms:R:1 pbc="T T T"
Si       0.83896499       1.74309516       1.34059570       0.00000000
Si      -1.83132180      -0.79632036      -1.31748966       0.00000000
Si       0.81707905       1.80095724      -1.40963955       0.00000000
Si       1.61500756      -1.86745302       0.01158730       0.00000000
Si       2.05499394       0.38584494      -2.78568278       0.00000000
Si      -0.68634657      -2.32350786      -2.77149005       0.00000000
Si       3.40658828      -0.90380178      -1.31221024       0.00000000
Si       2.04426372      -2.26942506       2.34855362       0.00000000
Si      -3.17892834      -2.23793649       0.07480322       0.00000000
Si       3.21368210       1.60588449       1.65441268       0.00000000
