10
Lattice="16.28999089631971 0.0 0.0 0.0 16.28999089631971 0.0 0.0 0.0 34.281931910070035" Properties=species:S:1:pos:R:3:initial_magmoms:R:1 pbc="T T T"
Si       2.17587063       0.78393996      -0.40864086       0.00000000
Si      -1.51350390      -0.81072072      -1.64711062       0.00000000
Si      -0.74231901       1.53055953       1.66905107       0.00000000
Si       0.07317468      -2.28553587       0.75560848       0.00000000
Si      -0.59266278      -0.19746738       3.25867086       0.00000000
Si       1.74661447       1.18591200      -2.74560718       0.00000000
Si      -3.13180137      -1.67703921      -0.04826899       0.00000000
Si       3.33592226      -1.28941866      -0.28131769       0.00000000
Si       2.20546142      -2.28301092       1.67854717       0.00000000
Si      -0.19849365      -2.37228012      -2.96549161       0.00000000
