10
Lattice="16.28999089631971 0.0 0.0 0.0 16.28999089631971 0.0 0.0 0.0 34.281931910070035" Properties=species:S:1:pos:R:3:initial_magmoms:R:1 pbc="T T T"
Si      -0.28383696       0.30031659       2.31471734       0.00000000
Si       2.20832846       0.68826132      -0.45499005       0.00000000
Si      -0.85476888      -2.08342584      -0.74282132       0.00000000
Si      -1.62513927       1.36259075      -1.18828099       0.00000000
Si      -0.72293391       2.55238955       2.32585897       0.00000000
Si      -1.98583245       3.07689497       0.41721134       0.00000000
Si      -3.63524382       0.30744347      -0.57991348       0.00000000
Si       3.53754359      -0.43981371       1.28313915       0.00000000
Si       0.35849144      -2.64075561      -2.73508262       0.00000000
Si       2.96692118      -0.47353401      -2.35876964       0.00000000
