10
Lattice="16.28999089631971 0.0 0.0 0.0 16.28999089631971 0.0 0.0 0.0 34.281931910070035" Properties=species:S:1:pos:R:3:initial_magmoms:R:1 pbc="T T T"
Si       1.68686208       1.27072818      -0.89352477       0.00000000
Si      -1.70147421       0.95425191      -1.45852561       0.00000000
Si       1.28340765      -2.03620113      -0.38683754       0.00000000
Si      -1.85526810       0.70897338       2.37354516       0.00000000
Si       0.27930834      -0.01850544       3.13672996       0.00000000
Si      -3.13114977      -0.91598670       1.19863414       0.00000000
Si      -3.21533649      -0.76934412      -1.14224033       0.00000000
Si      -0.03101616      -3.36220713       1.01577421       0.00000000
Si       3.38925409       1.22016077       0.68903293       0.00000000
Si      -1.75777245       2.94460388       1.59764177       0.00000000
