10
Lattice="16.28999089631971 0.0 0.0 0.0 16.28999089631971 0.0 0.0 0.0 34.281931910070035" Properties=species:S:1:pos:R:3:initial_magmoms:R:1 pbc="T T T"
Si      -2.20892400      -0.34305111      -0.67840553       0.00000000
Si      -0.16907391      -2.14806456       0.99019987       0.00000000
Si       1.92320459       0.64914021      -1.27710552       0.00000000
Si      -0.48381300       1.57905486       1.74508844       0.00000000
Si      -3.13541775       1.76112819      -0.63003370       0.00000000
Si      -1.04870133      -1.62093645       3.23285655       0.00000000
Si      -2.25922752      -1.38346083      -2.71067387       0.00000000
Si       3.72673565       0.68354469       0.31937066       0.00000000
Si       1.80598663      -3.33309690       0.79242730       0.00000000
Si       2.60199260      -0.95957874      -2.79922415       0.00000000
