10
Lattice="16.28999089631971 0.0 0.0 0.0 16.28999089631971 0.0 0.0 0.0 34.281931910070035" Properties=species:S:1:pos:R:3:initial_magmoms:R:1 pbc="T T T"
Si       1.22584856      -0.33098022       1.97549743       0.00000000
Si      -0.05036705       2.35313937      -0.24676148       0.00000000
Si      -2.25854075      -0.51013764       0.57535398       0.00000000
Si       1.01584766      -1.02143187      -1.98787321       0.00000000
Si      -3.26133686      -0.30302658      -1.50641749       0.00000000
Si       1.60911968      -2.65626369       1.92421163       0.00000000
Si      -2.34104960       2.87233425      -0.05622240       0.00000000
Si       3.40642796       0.36536841       1.46884448       0.00000000
Si      -0.35320043      -3.60237060       0.96531118       0.00000000
Si      -2.25676514      -2.51111979       1.83195890       0.00000000
