10
Lattice="16.28999089631971 0.0 0.0 0.0 16.28999089631971 0.0 0.0 0.0 34.281931910070035" Properties=species:S:1:pos:R:3:initial_magmoms:R:1 pbc="T T T"
Si      -2.00893167       0.69590880      -0.97898968       0.00000000
Si       1.53334512       0.30273336      -1.74697394       0.00000000
Si      -0.18992511      -2.28030678       0.58409588       0.00000000
Si       0.93371022       1.27006614       1.81474936       0.00000000
Si       3.01878135       0.30563298       1.45009225       0.00000000
Si       0.73098117       2.27563155      -2.73820228       0.00000000
Si      -1.55769867       2.62164744      -2.21694521       0.00000000
Si       3.64606038       0.58288878      -0.78197130       0.00000000
Si      -3.44902143       1.50386022       0.62365725       0.00000000
Si       0.79456104      -2.66118327       2.64495537       0.00000000
