10
Lattice="16.28999089631971 0.0 0.0 0.0 16.28999089631971 0.0 0.0 0.0 34.281931910070035" Properties=species:S:1:pos:R:3:initial_magmoms:R:1 pbc="T T T"
Si      -1.36583505      -1.36189287      -1.33032825       0.00000000
Si       1.34688978       1.37344248      -1.34734924       0.00000000
Si       1.35643572      -1.35544203       1.35924508       0.00000000
Si      -1.35741312       1.35501849       1.36054779       0.00000000
Si       2.72212416       0.04435767      -2.63415313       0.00000000
Si      -2.62780506      -0.05908383      -2.78461661       0.00000000
Si       2.71015101       2.71432125       0.00119987       0.00000000
Si       2.71199178      -2.71461447      -0.00442237       0.00000000
Si      -2.71608709       2.71311579      -0.00082277       0.00000000
Si       2.71368594       0.00008145       2.71677606       0.00000000
