10
Lattice="16.28999089631971 0.0 0.0 0.0 16.28999089631971 0.0 0.0 0.0 34.281931910070035" Properties=species:S:1:pos:R:3:initial_magmoms:R:1 pbc="T T T"
Si      -1.35322007       1.35835794      -1.36387314       0.00000000
Si       1.36106208      -1.35765258      -1.36260471       0.00000000
Si      -1.37131501      -1.34030699       1.37179227       0.00000000
Si       1.36994013       1.36163223       1.38382524       0.00000000
Si       0.09857079      -2.59694463       2.64989197       0.00000000
Si      -2.71401628      -2.71364426       0.00023997       0.00000000
Si       2.71575477      -2.71429749      -0.00527942       0.00000000
Si      -2.71423070       2.71586880      -0.00366817       0.00000000
Si      -2.71285399      -0.00003258      -2.72013569       0.00000000
Si       2.71762812       2.71599912      -0.00445665       0.00000000
