10
Lattice="16.28999089631971 0.0 0.0 0.0 16.28999089631971 0.0 0.0 0.0 34.281931910070035" Properties=species:S:1:pos:R:3:initial_magmoms:R:1 pbc="T T T"
Si      -1.35877659      -1.35606105       1.35636539       0.00000000
Si       1.35664749       1.35946566       1.35605686       0.00000000
Si       1.35741312      -1.35501849      -1.36054779       0.00000000
Si      -1.35867397       1.35809730      -1.36137056       0.00000000
Si      -0.00842193      -2.71691136      -2.69087604       0.00000000
Si       2.70430290       0.01842399      -2.70789703       0.00000000
Si       2.71384884      -2.71046052      -0.00130271       0.00000000
Si      -0.00114030      -2.71322982       2.71372496       0.00000000
Si       2.71407690       0.00190593       2.71348499       0.00000000
Si      -2.71612034      -2.71370223       0.00013713       0.00000000
