10
Lattice="16.28999089631971 0.0 0.0 0.0 16.28999089631971 0.0 0.0 0.0 34.281931910070035" Properties=species:S:1:pos:R:3:initial_magmoms:R:1 pbc="T T T"
Si      -1.33207891      -1.35982404       1.35945077       0.00000000
Si       1.35990549      -1.35267273      -1.35753098       0.00000000
Si      -1.35433757       1.36013355      -1.35660537       0.00000000
Si       1.36607940       1.36326123       1.34549802       0.00000000
Si      -2.56999380       0.05528826       2.73549400       0.00000000
Si       2.71347417      -2.70948312       0.00767916       0.00000000
Si       0.00166158      -2.71249677      -2.71471914       0.00000000
Si      -2.71323423       0.00232947      -2.71447917       0.00000000
Si      -2.71341819      -2.71515204       0.00301681       0.00000000
Si       0.00213399       2.71721254      -2.71444489       0.00000000
