10
Lattice="16.28999089631971 0.0 0.0 0.0 16.28999089631971 0.0 0.0 0.0 34.281931910070035" Properties=species:S:1:pos:R:3:initial_magmoms:R:1 pbc="T T T"
Si      -1.84134178      -1.15517277       0.76184780       0.00000000
Si      -0.86405418       0.96910839      -1.94550072       0.00000000
Si       1.34017830       1.52205615       1.20185664       0.00000000
Si       1.32820515      -2.09062602       0.04154972       0.00000000
Si       2.48060862       0.21163968      -2.17227583       0.00000000
Si       1.24802577      -1.91060523       2.40069647       0.00000000
Si       2.57302179       2.19804228      -0.71937246       0.00000000
Si      -1.04065407      -1.56458934       2.92195354       0.00000000
Si       2.19566394       0.13954014       2.94958479       0.00000000
Si       0.56984049       0.12023649      -3.63933764       0.00000000
