10
Lattice="10.86 0.0 0.0 0.0 10.86 0.0 0.0 0.0 10.86" Properties=species:S:1:pos:R:3:initial_magmoms:R:1 pbc="T T T"
Si       1.35750000       1.35750000       1.35750000       0.00000000
Si      -1.35750000       1.35750000      -1.35750000       0.00000000
Si       1.35750000      -1.35750000      -1.35750000       0.00000000
Si      -1.35750000      -1.35750000       1.35750000       0.00000000
Si       2.65041558      -0.00594042       2.70201144       0.00000000
Si      -2.62050714      -0.09782688       2.74156356       0.00000000
Si      -2.62345020      -2.75116380       0.07950606       0.00000000
Si      -2.60694300       0.07713858      -2.77842240       0.00000000
Si       0.00000000      -2.71500000      -2.71500000       0.00000000
Si       0.00000000       2.71500000       2.71500000       0.00000000
