10
Lattice="10.86 0.0 0.0 0.0 10.86 0.0 0.0 0.0 10.86" Properties=species:S:1:pos:R:3:initial_magmoms:R:1 pbc="T T T"
Si      -1.29291558       1.36344042      -1.34451144       0.00000000
Si      -1.29291558      -1.35155958       1.37048856       0.00000000
Si       1.42208442       1.36344042       1.37048856       0.00000000
Si       0.09160410       2.69759142      -2.65183824       0.00000000
Si      -2.65041558       0.00594042      -2.70201144       0.00000000
Si      -2.65041558      -2.70905958       0.01298856       0.00000000
Si      -2.65041558       2.72094042       0.01298856       0.00000000
Si      -2.65041558       0.00594042       2.72798856       0.00000000
Si       2.71350132       2.69760228      -0.09644766       0.00000000
Si       0.06458442      -2.70905958       2.72798856       0.00000000
