10
Lattice="16.28999089631971 0.0 0.0 0.0 16.28999089631971 0.0 0.0 0.0 34.40785480372833" Properties=species:S:1:pos:R:3:initial_magmoms:R:1 pbc="T T T"
Si      -1.33848577      -1.37503348       1.37971790       0.00000000
Si       1.36987497       1.35088366       1.37675882       0.00000000
Si       1.33747416      -1.33821808      -1.45062221       0.00000000
Si      -1.50036276       1.35061325      -1.41828225       0.00000000
Si      -2.70932741       2.70079687       0.04342962       0.00000000
Si      -2.69253242      -2.72449708      -0.00965141       0.00000000
Si       2.72018565       2.70768754      -0.01895530       0.00000000
Si      -2.70175001      -0.01181699       2.74072136       0.00000000
Si       0.01210347       2.70268651       2.74113425       0.00000000
Si       2.72391606      -2.72317759       0.02157030       0.00000000
