10
Lattice="16.28999089631971 0.0 0.0 0.0 16.28999089631971 0.0 0.0 0.0 34.40785480372833" Properties=species:S:1:pos:R:3:initial_magmoms:R:1 pbc="T T T"
Si      -1.27797656       1.95421356       0.37497701       0.00000000
Si      -0.22858128      -1.39031892       1.93891811       0.00000000
Si      -1.45509122      -0.86986971      -1.74059112       0.00000000
Si       2.26701414       0.77859684      -0.44716473       0.00000000
Si       0.96314625      -0.30794616       3.72021375       0.00000000
Si      -3.57248564       1.59249411       0.01297177       0.00000000
Si       0.92431089      -3.43873755       1.66162505       0.00000000
Si      -0.88311348       3.71201600      -1.18311475       0.00000000
Si      -3.56851088      -1.66874760      -0.92970076       0.00000000
Si      -2.41560663      -2.27835198       2.33034208       0.00000000
