10
Lattice="16.28999089631971 0.0 0.0 0.0 16.28999089631971 0.0 0.0 0.0 34.40785480372833" Properties=species:S:1:pos:R:3:initial_magmoms:R:1 pbc="T T T"
Si       0.00928530       2.29267089      -0.47458781       0.00000000
Si       2.24536473      -0.39232836       0.61297628       0.00000000
Si      -0.23566743      -0.95768910      -2.14553739       0.00000000
Si      -1.34442999      -1.30867344       1.57071945       0.00000000
Si      -2.44853198      -1.51270569      -1.87774091       0.00000000
Si      -2.04897249      -3.03134094       0.01482979       0.00000000
Si       3.51194481      -0.89945235      -1.27684180       0.00000000
Si       2.26756800      -2.16412650       2.23424089       0.00000000
Si       0.62073045      -3.14735832      -2.13177424       0.00000000
Si      -1.92222000       2.92912119      -1.62797415       0.00000000
