10
Lattice="16.28999089631971 0.0 0.0 0.0 16.28999089631971 0.0 0.0 0.0 34.40785480372833" Properties=species:S:1:pos:R:3:initial_magmoms:R:1 pbc="T T T"
Si      -0.24408936      -1.36860435       1.81093600       0.00000000
Si      -1.46388456       1.50252444      -1.02452886       0.00000000
Si       1.92397932       0.72495387      -1.16140338       0.00000000
Si       0.70750728       0.45804222       2.88826374       0.00000000
Si       0.30669183       1.60780671      -2.61004369       0.00000000
Si       2.72339478       1.12159908       1.86803621       0.00000000
Si       1.38241827      -3.05808912       1.70589392       0.00000000
Si       2.88960165       2.48358710       0.01049440       0.00000000
Si       0.64586592      -3.92155686      -0.52076317       0.00000000
Si      -3.64465034       0.49972833      -2.00556616       0.00000000
