10
Lattice="16.28999089631971 0.0 0.0 0.0 16.28999089631971 0.0 0.0 0.0 34.40785480372833" Properties=species:S:1:pos:R:3:initial_magmoms:R:1 pbc="T T T"
Si      -1.35136953       1.34953365       1.35532616       0.00000000
Si       1.35883035       1.35435549      -1.35615195       0.00000000
Si      -1.35505107      -1.35953885      -1.35563583       0.00000000
Si       1.35755973      -1.36132751       1.36213892       0.00000000
Si      -0.00687438       2.69541345       2.72183488       0.00000000
Si      -2.71268085       2.71338132       0.00326875       0.00000000
Si      -2.71389445      -0.00206720      -2.71261357       0.00000000
Si       0.00083079       2.71341390      -2.71340495       0.00000000
Si      -2.71101764      -2.71735349       0.00227092       0.00000000
Si       2.71604799      -0.00162248      -2.71268238       0.00000000
