10
Lattice="16.28999089631971 0.0 0.0 0.0 16.28999089631971 0.0 0.0 0.0 34.40785480372833" Properties=species:S:1:pos:R:3:initial_magmoms:R:1 pbc="T T T"
Si       0.56467656      -2.37453791      -0.40102377       0.00000000
Si      -1.39027005       0.87643458       1.85946142       0.00000000
Si      -0.47917035       1.33273377      -2.05112219       0.00000000
Si       2.31876747      -0.31864869       1.00543249       0.00000000
Si       1.17169083      -1.76999158       2.59631637       0.00000000
Si      -0.79120530       3.14450757       1.12685787       0.00000000
Si       2.57207697      -2.19123632      -1.71413147       0.00000000
Si      -3.62478564       0.12979872       1.22416334       0.00000000
Si      -0.23470632      -0.35417718       3.90841247       0.00000000
Si       1.24664112       0.90753219      -3.67906193       0.00000000
