10
Lattice="16.28999089631971 0.0 0.0 0.0 16.28999089631971 0.0 0.0 0.0 34.40785480372833" Properties=species:S:1:pos:R:3:initial_magmoms:R:1 pbc="T T T"
Si       1.46326554       1.30577382       1.38592306       0.00000000
Si      -1.14707664      -1.45134289       1.59088388       0.00000000
Si       1.90904139      -0.88700679      -1.30450573       0.00000000
Si      -2.31876747       0.31864869      -1.00543249       0.00000000
Si      -1.75409091      -2.05588922      -1.40645626       0.00000000
Si       0.25330950      -1.87258763      -2.71956396       0.00000000
Si       0.81516789       0.29027151      -3.61255151       0.00000000
Si      -2.55347379      -0.03552849       2.90297998       0.00000000
Si       2.74835106       2.77004934      -0.24935386       0.00000000
Si      -1.92029778      -3.41787725       0.45108555       0.00000000
