10
Lattice="16.28999089631971 0.0 0.0 0.0 16.28999089631971 0.0 0.0 0.0 34.40785480372833" Properties=species:S:1:pos:R:3:initial_magmoms:R:1 pbc="T T T"
Si      -1.39424481       1.20218571       1.53665565       0.00000000
Si      -1.98588132      -0.73871892      -1.28075195       0.00000000
Si       1.29287214      -1.52611236       1.50514148       0.00000000
Si       1.39328370       1.50759063      -1.60532142       0.00000000
Si      -2.69171073       2.64246606       0.23563200       0.00000000
Si       2.70764235       2.71787247       0.01825682       0.00000000
Si      -0.06276537       2.54158209       2.90446499       0.00000000
Si       2.58735699      -2.89610136      -0.01625428       0.00000000
Si       2.65118121      -0.16856892       2.89792749       0.00000000
Si      -3.81234870       0.86294646      -0.84401758       0.00000000
