10
Lattice="16.28999089631971 0.0 0.0 0.0 16.28999089631971 0.0 0.0 0.0 34.40785480372833" Properties=species:S:1:pos:R:3:initial_magmoms:R:1 pbc="T T T"
Si       1.48455657      -1.21199229      -1.37996220       0.00000000
Si      -1.25563320       1.49376042      -1.35505090       0.00000000
Si       1.27114128       1.41459102       1.42548381       0.00000000
Si      -0.95301387      -1.98233010       1.15837549       0.00000000
Si      -0.74016873      -0.81695979       3.15589021       0.00000000
Si       1.88644716      -0.68629770       2.77616491       0.00000000
Si       0.12152340      -2.57228874      -2.73814421       0.00000000
Si      -2.59581150       0.14271669      -2.73673348       0.00000000
Si       2.83229343      -2.54775600       0.04576247       0.00000000
Si       2.64815127       2.73947301       0.00612460       0.00000000
