10
Lattice="16.28999089631971 0.0 0.0 0.0 16.28999089631971 0.0 0.0 0.0 34.40785480372833" Properties=species:S:1:pos:R:3:initial_magmoms:R:1 pbc="T T T"
Si       2.06759196       0.49213719      -0.90155512       0.00000000
Si      -1.08753669       2.05074810       0.10718053       0.00000000
Si       0.38602413      -0.84533697       2.14866851       0.00000000
Si      -1.53267723      -1.32768387      -1.20954000       0.00000000
Si      -3.25936022       1.19847159       0.32512000       0.00000000
Si       0.85529016      -3.06172179       1.67043347       0.00000000
Si       2.59027290       2.53548963       0.27970161       0.00000000
Si       1.56996504       1.11904155      -3.10679017       0.00000000
Si      -0.45669015       3.00024333       2.16525310       0.00000000
Si      -3.36477118       0.04022001      -1.79691681       0.00000000
