10
Lattice="16.28999089631971 0.0 0.0 0.0 16.28999089631971 0.0 0.0 0.0 34.40785480372833" Properties=species:S:1:pos:R:3:initial_magmoms:R:1 pbc="T T T"
Si       1.33147944       1.33939638       1.36780933       0.00000000
Si      -1.29746592       1.44028035      -1.30102365       0.00000000
Si      -1.38377034      -1.37523438       1.35944822       0.00000000
Si       1.39424481      -1.20218571      -1.53665565       0.00000000
Si      -2.41810389      -0.33923925      -2.38067323       0.00000000
Si      -0.59163651      -1.94090463      -2.81740760       0.00000000
Si       2.68592778       2.70642060      -0.01288575       0.00000000
Si       2.69004915      -0.01285281       2.72451181       0.00000000
Si       2.68711695      -2.72829807      -0.03151417       0.00000000
Si      -0.02469564       2.70177795       2.72454622       0.00000000
