10
Lattice="16.28999089631971 0.0 0.0 0.0 16.28999089631971 0.0 0.0 0.0 34.40785480372833" Properties=species:S:1:pos:R:3:initial_magmoms:R:1 pbc="T T T"
Si      -2.15766656       0.42263265      -0.84261443       0.00000000
Si      -0.39486308      -1.75780244       1.55809176       0.00000000
Si       1.07883783       1.78084886       1.18039653       0.00000000
Si       1.60823025      -0.46284518      -1.73198916       0.00000000
Si      -0.26309653       1.55153453       3.12017483       0.00000000
Si       3.48065172      -0.82042697      -0.33527032       0.00000000
Si       0.69814053       3.45824645      -0.75126152       0.00000000
Si      -2.68937216      -2.11952189       1.19608652       0.00000000
Si      -2.99417435      -1.74307628      -1.09644131       0.00000000
Si       3.28745232       0.81604429       1.40483909       0.00000000
