10
Lattice="16.28999089631971 0.0 0.0 0.0 16.28999089631971 0.0 0.0 0.0 34.40785480372833" Properties=species:S:1:pos:R:3:initial_magmoms:R:1 pbc="T T T"
Si       1.18931661      -1.50043932       1.36647431       0.00000000
Si       1.37427327       1.33149573      -1.37776009       0.00000000
Si      -1.34192133      -1.38316761      -1.37655582       0.00000000
Si      -1.32789564       1.49151240       1.53094395       0.00000000
Si      -2.68887627       2.67952581      -0.02157374       0.00000000
Si       2.72510523       2.67937920       0.01104493       0.00000000
Si       0.01760949       2.68711695      -2.73797217       0.00000000
Si      -2.69850366      -0.02692737      -2.73907322       0.00000000
Si       2.69889462      -2.73885399      -0.02594354       0.00000000
Si      -2.71446786      -2.74615191       0.00529881       0.00000000
