10
Lattice="16.28999089631971 0.0 0.0 0.0 16.28999089631971 0.0 0.0 0.0 34.40785480372833" Properties=species:S:1:pos:R:3:initial_magmoms:R:1 pbc="T T T"
Si       2.06083161       0.24286761      -1.13490932       0.00000000
Si      -1.34389242      -0.97964802      -1.74124487       0.00000000
Si       0.41814801      -1.77445341       1.57729135       0.00000000
Si      -1.05684633       2.02588956       0.77713624       0.00000000
Si       1.47054717       1.62352656      -2.94627744       0.00000000
Si      -3.43391571      -1.12718655      -0.69390360       0.00000000
Si      -0.60215985      -3.19090149      -1.80920042       0.00000000
Si      -0.74173257       3.65071932      -0.90561524       0.00000000
Si       2.86155027      -1.90285119      -1.70043713       0.00000000
Si      -0.10453293      -3.81780585       0.39603463       0.00000000
