10
Lattice="16.28999089631971 0.0 0.0 0.0 16.28999089631971 0.0 0.0 0.0 34.40785480372833" Properties=species:S:1:pos:R:3:initial_magmoms:R:1 pbc="T T T"
Si      -1.24765110       1.45278653       1.32773104       0.00000000
Si       1.34783460       1.36303068      -1.35670247       0.00000000
Si      -1.36399428      -1.35332433      -1.36103787       0.00000000
Si       1.36098063      -1.18801341       1.55251768       0.00000000
Si       0.55105812       2.41718580       2.67710464       0.00000000
Si      -2.67125864       0.15757317       2.63829256       0.00000000
Si       2.68887627      -2.67952581       0.02157374       0.00000000
Si       2.30073444       0.67370553       2.95253967       0.00000000
Si      -2.70564845      -2.70879894      -0.00230533       0.00000000
Si       2.70648576       0.00759114      -2.71639843       0.00000000
