10
Lattice="16.28999089631971 0.0 0.0 0.0 16.28999089631971 0.0 0.0 0.0 34.40785480372833" Properties=species:S:1:pos:R:3:initial_magmoms:R:1 pbc="T T T"
Si      -1.87242147       0.35758179      -1.39671883       0.00000000
Si      -0.33052410      -2.11299219       1.07122034       0.00000000
Si      -0.19319940       1.63647126       1.74010941       0.00000000
Si       1.75630635      -0.78612282      -1.72476350       0.00000000
Si       1.01895579      -1.55242071       2.96829848       0.00000000
Si      -3.48065172       0.82042697       0.33527032       0.00000000
Si      -1.32683679       2.51344016      -2.40848237       0.00000000
Si       1.09913517      -3.56333976      -0.13866373       0.00000000
Si      -2.40181389       2.60127584       1.51566685       0.00000000
Si       0.66929094       0.65628274       3.76972668       0.00000000
