10
Lattice="16.28999089631971 0.0 0.0 0.0 16.28999089631971 0.0 0.0 0.0 34.40785480372833" Properties=species:S:1:pos:R:3:initial_magmoms:R:1 pbc="T T T"
Si      -1.35796698      -1.35713781       1.35714978       0.00000000
Si       1.35734796      -1.35725184      -1.35790675       0.00000000
Si       1.35700587       1.35874958       1.35677129       0.00000000
Si      -1.35812988       1.35800676      -1.35797556       0.00000000
Si      -0.00039096       2.70978191       2.71701777       0.00000000
Si      -0.00019548      -2.71324773      -2.71584791       0.00000000
Si       2.71467963      -2.71461609      -0.00041289       0.00000000
Si      -2.71534752       2.71398473      -0.00144513       0.00000000
Si      -2.71363707      -0.00140445      -2.71577909       0.00000000
Si       0.00099369       2.71356119      -2.71588231       0.00000000
