10
Lattice="16.28999089631971 0.0 0.0 0.0 16.28999089631971 0.0 0.0 0.0 34.40785480372833" Properties=species:S:1:pos:R:3:initial_magmoms:R:1 pbc="T T T"
Si      -1.35785295       1.35680221      -1.36024648       0.00000000
Si       1.35866745      -1.35862906      -1.36031530       0.00000000
Si       1.36381509       1.34987570       1.37734720       0.00000000
Si      -1.36533006      -1.36682293       1.38914910       0.00000000
Si      -2.71524978       2.70783454       0.00000000       0.00000000
Si       2.71358820       2.71001740       0.00092901       0.00000000
Si       2.71150308      -2.71671007      -0.00110105       0.00000000
Si       0.00040725       2.71234687      -2.71736185       0.00000000
Si      -2.71616202      -2.71470640       0.00034408       0.00000000
Si      -2.71485882      -0.00194737      -2.71701777       0.00000000
