10
Lattice="16.28999089631971 0.0 0.0 0.0 16.28999089631971 0.0 0.0 0.0 34.40785480372833" Properties=species:S:1:pos:R:3:initial_magmoms:R:1 pbc="T T T"
Si      -1.35661491      -1.35900954      -1.35869813       0.00000000
Si      -1.35757602       1.35861858       1.35845727       0.00000000
Si       1.35808101       1.35764118      -1.35914543       0.00000000
Si       1.35656604      -1.36133901       1.35959273       0.00000000
Si       2.71604799       2.71223613      -0.00412894       0.00000000
Si      -2.71487511      -2.71455420      -0.00158276       0.00000000
Si       2.71713942      -2.71262220      -0.00116987       0.00000000
Si       2.71482624      -0.00102627      -2.71595113       0.00000000
Si      -2.71482624      -0.00009774      -2.71598554       0.00000000
Si      -0.00013032       2.71463076      -2.71653606       0.00000000
