10
Lattice="16.28999089631971 0.0 0.0 0.0 16.28999089631971 0.0 0.0 0.0 34.40785480372833" Properties=species:S:1:pos:R:3:initial_magmoms:R:1 pbc="T T T"
Si      -0.17228304      -2.04378317       1.10390782       0.00000000
Si      -1.55401713      -0.54344906      -1.69692753       0.00000000
Si      -0.65656845       2.17289052       0.75050455       0.00000000
Si       2.23782246       0.29351322      -0.81185379       0.00000000
Si      -0.11218923       0.09487296      -3.44643029       0.00000000
Si       1.36677987       2.53926891       2.07434750       0.00000000
Si      -0.08760762      -3.49992998      -0.72039766       0.00000000
Si       1.83581784       1.28806659      -2.87240373       0.00000000
Si       3.09259134       2.11406733       0.44640776       0.00000000
Si      -2.90922133       1.88701731       1.62147106       0.00000000
