10
Lattice="16.28999089631971 0.0 0.0 0.0 16.28999089631971 0.0 0.0 0.0 34.40785480372833" Properties=species:S:1:pos:R:3:initial_magmoms:R:1 pbc="T T T"
Si       2.23796907       0.73016667       0.02408551       0.00000000
Si      -1.06593615       2.05086213      -0.53745099       0.00000000
Si       0.34440318      -1.95026228      -1.35154129       0.00000000
Si      -1.14816807      -0.60538853       2.04131594       0.00000000
Si       2.97294129      -0.22615570       1.96069829       0.00000000
Si      -0.85558338       3.09304746       1.63557829       0.00000000
Si      -3.15783279       1.42117218      -1.39861126       0.00000000
Si       3.29062887      -0.34398778      -1.76082295       0.00000000
Si      -1.30219002       1.42262199       3.29014973       0.00000000
Si      -3.21152463      -1.60148586       1.31018303       0.00000000
