10
Lattice="16.28999089631971 0.0 0.0 0.0 16.28999089631971 0.0 0.0 0.0 34.40785480372833" Properties=species:S:1:pos:R:3:initial_magmoms:R:1 pbc="T T T"
Si      -1.65573189      -0.98558084      -1.41505823       0.00000000
Si       1.04319531      -1.74571117       1.30416165       0.00000000
Si      -1.90904139       0.88700679       1.30450573       0.00000000
Si       1.32440958       2.03610339      -0.70487971       0.00000000
Si      -1.09387350       1.17727830      -2.30804578       0.00000000
Si      -0.44577585       2.19278061       2.69042878       0.00000000
Si       2.27745603      -0.58694336       2.91976759       0.00000000
Si      -3.66313230      -1.16888243      -0.10195053       0.00000000
Si       0.83930967       3.65705613       1.05515187       0.00000000
Si       2.78482437      -2.79960659      -0.19375074       0.00000000
