10
Lattice="16.28999089631971 0.0 0.0 0.0 16.28999089631971 0.0 0.0 0.0 34.40785480372833" Properties=species:S:1:pos:R:3:initial_magmoms:R:1 pbc="T T T"
Si       1.35791811       1.34364807       1.38925232       0.00000000
Si      -1.35962856      -1.36699164       1.38921791       0.00000000
Si       1.30478013      -1.43039232      -1.49062824       0.00000000
Si      -1.30316742       1.51944975      -1.49045276       0.00000000
Si       2.69824302      -2.72246625       0.01948518       0.00000000
Si       2.72836323       2.69904123      -0.00973399       0.00000000
Si      -2.71912680       2.71018359       0.01506033       0.00000000
Si      -2.71793763      -2.72453508      -0.00356810       0.00000000
Si      -0.00070047       2.70387936       2.75183854       0.00000000
Si       2.71396287      -0.01154961       2.75225144       0.00000000
