10
Lattice="16.28999089631971 0.0 0.0 0.0 16.28999089631971 0.0 0.0 0.0 34.40785480372833" Properties=species:S:1:pos:R:3:initial_magmoms:R:1 pbc="T T T"
Si       1.35641943       1.35487188      -1.38274923       0.00000000
Si      -1.35827649      -1.36726857      -1.38254279       0.00000000
Si       1.53671715      -1.20775689       1.36926135       0.00000000
Si      -1.36000323       1.38101733       1.40167356       0.00000000
Si      -2.68654680      -2.71552019      -0.00450743       0.00000000
Si       2.70275535       2.70749574      -0.00357842       0.00000000
Si      -2.70774009       2.71678104      -0.02405110       0.00000000
Si       2.72078838      -2.72522741      -0.00519559       0.00000000
Si      -0.00201996       2.71160082      -2.74272045       0.00000000
Si       2.71399545      -0.00374670      -2.74120651       0.00000000
