10
Lattice="16.28999089631971 0.0 0.0 0.0 16.28999089631971 0.0 0.0 0.0 34.40785480372833" Properties=species:S:1:pos:R:3:initial_magmoms:R:1 pbc="T T T"
Si       1.24207992      -0.91781118       1.76185519       0.00000000
Si      -1.44992403       1.94535180       0.06671687       0.00000000
Si      -1.33879365      -1.22808681      -1.63888145       0.00000000
Si       2.31555834       0.76468518      -0.62491581       0.00000000
Si       1.06885206       1.95308955      -2.22505399       0.00000000
Si      -0.00627165       0.07089408      -3.26699323       0.00000000
Si      -3.20688198       0.70610634       1.29438981       0.00000000
Si      -3.55115484      -0.75983076      -0.51962771       0.00000000
Si       1.22256450       0.68755203       3.54459596       0.00000000
Si      -0.81381582       3.53585853       1.64717375       0.00000000
