10
Lattice="16.28999089631971 0.0 0.0 0.0 16.28999089631971 0.0 0.0 0.0 34.40785480372833" Properties=species:S:1:pos:R:3:initial_magmoms:R:1 pbc="T T T"
Si      -0.83046909      -1.84105019       1.28492218       0.00000000
Si      -0.52965306      -1.08432756      -2.07028737       0.00000000
Si       2.23451559       0.74663586       0.63529808       0.00000000
Si      -1.77717221       1.76810031       0.16124635       0.00000000
Si      -2.03943374      -0.49086657       2.74663405       0.00000000
Si       0.71017884       2.19607119       2.74000365       0.00000000
Si      -2.66808113      -2.50194363      -0.17933384       0.00000000
Si      -0.73672177       3.45460401       1.47506698       0.00000000
Si       3.62478564      -0.12979872      -1.22416334       0.00000000
Si      -3.49457057       0.73800216       1.42155929       0.00000000
