10
Lattice="16.28999089631971 0.0 0.0 0.0 16.28999089631971 0.0 0.0 0.0 34.40785480372833" Properties=species:S:1:pos:R:3:initial_magmoms:R:1 pbc="T T T"
Si      -1.96274952      -0.04660569       1.27044193       0.00000000
Si       1.50096060       1.24144461       1.37920522       0.00000000
Si       0.65673135      -2.23322868      -0.54980342       0.00000000
Si      -0.78040503       1.40235723      -1.93293114       0.00000000
Si      -2.70448209       2.16464778       1.33839748       0.00000000
Si      -0.30639861      -3.63392433       1.12782130       0.00000000
Si      -1.46512260      -0.67351005       3.47567699       0.00000000
Si       3.02674716      -2.31485787      -0.56938150       0.00000000
Si      -2.76117129       2.54352060      -1.09165862       0.00000000
Si      -1.12467789      -0.06357987      -3.74694867       0.00000000
