10
Lattice="16.28999089631971 0.0 0.0 0.0 16.28999089631971 0.0 0.0 0.0 34.40785480372833" Properties=species:S:1:pos:R:3:initial_magmoms:R:1 pbc="T T T"
Si       0.64180971       2.09329758      -0.89608426       0.00000000
Si       0.59093604      -0.35411202       2.26861436       0.00000000
Si      -2.37001581       0.08162919       0.01957808       0.00000000
Si       1.00553283      -1.89524376      -1.11915051       0.00000000
Si      -0.02924055      -2.63976192       2.25873930       0.00000000
Si      -3.02674716       2.31485787       0.56938150       0.00000000
Si       0.62229429       3.69866079       0.88665651       0.00000000
Si       1.02341925      -3.71391637       0.47383083       0.00000000
Si       3.15907083      -1.13891535      -1.97253460       0.00000000
Si       3.01397580       1.28146914      -2.17034547       0.00000000
