10
Lattice="16.28999089631971 0.0 0.0 0.0 16.28999089631971 0.0 0.0 0.0 34.40785480372833" Properties=species:S:1:pos:R:3:initial_magmoms:R:1 pbc="T T T"
Si       1.35984033       1.76068836      -0.66145697       0.00000000
Si      -1.43224938       1.29054267       1.31617000       0.00000000
Si      -1.23121449      -0.27525213      -1.98406124       0.00000000
Si       1.17263565      -1.94388570       0.72745127       0.00000000
Si       0.35675100      -1.65737718      -3.05046448       0.00000000
Si      -3.42549378       1.22183145      -0.01187072       0.00000000
Si      -3.38364477      -0.88019757      -1.00584538       0.00000000
Si       2.76744294       2.00770992       1.27002904       0.00000000
Si      -0.09220140       3.32941536      -1.62467100       0.00000000
Si       3.32654832      -1.63018917      -0.25850636       0.00000000
