10
Lattice="16.28999089631971 0.0 0.0 0.0 16.28999089631971 0.0 0.0 0.0 34.40785480372833" Properties=species:S:1:pos:R:3:initial_magmoms:R:1 pbc="T T T"
Si       1.35593073      -1.35835794      -1.36231096       0.00000000
Si      -1.35826020       1.35749457      -1.36258622       0.00000000
Si       1.34781831       1.38769623       1.35966155       0.00000000
Si      -1.39269726      -1.35345465       1.34964886       0.00000000
Si       2.74791123       0.04373865       2.62858954       0.00000000
Si       2.71034649       2.71489140      -0.00361283       0.00000000
Si      -2.71578735      -2.71446786      -0.00994388       0.00000000
Si       2.71520091      -2.71661814      -0.00247737       0.00000000
Si       2.71365336      -0.00014661      -2.71980481       0.00000000
Si      -2.71731861       2.71689507      -0.00216770       0.00000000
