10
Lattice="16.28999089631971 0.0 0.0 0.0 16.28999089631971 0.0 0.0 0.0 34.40785480372833" Properties=species:S:1:pos:R:3:initial_magmoms:R:1 pbc="T T T"
Si       1.50270363      -0.53571294      -1.71351213       0.00000000
Si       0.59028444      -1.38065895       1.81136812       0.00000000
Si      -2.13210036       0.01627371      -1.06630002       0.00000000
Si       0.03300354       2.03437665       1.25633470       0.00000000
Si       2.47104639       1.58793291      -1.96967875       0.00000000
Si       2.48981247      -0.15609078       2.56672418       0.00000000
Si      -2.21227974       2.02719276       2.04066219       0.00000000
Si      -1.47054717      -1.62352656       2.94627744       0.00000000
Si       3.59438850       0.71081415       0.62794370       0.00000000
Si       3.54108762      -1.19335653      -0.81064951       0.00000000
