10
Lattice="16.28999089631971 0.0 0.0 0.0 16.28999089631971 0.0 0.0 0.0 34.40785480372833" Properties=species:S:1:pos:R:3:initial_magmoms:R:1 pbc="T T T"
Si      -1.35428798       1.35770614      -1.35508530       0.00000000
Si      -1.35557489      -1.35800369       1.35776912       0.00000000
Si       1.35914776       1.35703825       1.35773471       0.00000000
Si       1.36326424      -1.36321649      -1.36100346       0.00000000
Si      -0.00757739       2.71261386      -2.69729174       0.00000000
Si      -2.69904377      -0.02179068      -2.72349678       0.00000000
Si      -2.71271108       2.71357497       0.00048171       0.00000000
Si      -2.71313462       0.00018697       2.71512534       0.00000000
Si       2.71385348       2.71450350       0.00041289       0.00000000
Si       0.00164019       2.71460124       2.71491889       0.00000000
