10
Lattice="16.28999089631971 0.0 0.0 0.0 16.28999089631971 0.0 0.0 0.0 34.40785480372833" Properties=species:S:1:pos:R:3:initial_magmoms:R:1 pbc="T T T"
Si       1.35563751       1.35141840       1.38989575       0.00000000
Si      -1.36287027      -1.36228383       1.38504424       0.00000000
Si       1.52101359      -1.20156669      -1.43930546       0.00000000
Si      -1.35449721       1.37430585      -1.48658532       0.00000000
Si       0.05523939      -2.36903841      -2.89469113       0.00000000
Si      -2.69382843       2.69997533       0.02720287       0.00000000
Si       2.72588715       2.68724045       0.02317026       0.00000000
Si      -2.72205900      -2.71544526       0.00995764       0.00000000
Si       2.72543103      -2.72658762      -0.01483668       0.00000000
Si       2.70977634      -0.00599472       2.74697671       0.00000000
