10
Lattice="16.28999089631971 0.0 0.0 0.0 16.28999089631971 0.0 0.0 0.0 34.40785480372833" Properties=species:S:1:pos:R:3:initial_magmoms:R:1 pbc="T T T"
Si       1.68133977       1.07393454      -1.39823278       0.00000000
Si      -1.82218311       1.47032630       0.75253461       0.00000000
Si       0.95138487      -0.90530046       2.08504835       0.00000000
Si      -1.17077859      -1.69500708      -1.37425049       0.00000000
Si      -1.05137289      -1.48703265       3.18379499       0.00000000
Si       0.26958321       2.41592007      -2.86411143       0.00000000
Si      -2.45956194      -0.30077856      -2.85230953       0.00000000
Si      -2.69672805       0.26425638       2.85716104       0.00000000
Si      -0.88156593       3.65833394       1.26631299       0.00000000
Si      -3.61128123       1.12420322      -1.25540569       0.00000000
