10
Lattice="16.28999089631971 0.0 0.0 0.0 16.28999089631971 0.0 0.0 0.0 34.40785480372833" Properties=species:S:1:pos:R:3:initial_magmoms:R:1 pbc="T T T"
Si      -0.96097968      -1.85274315       1.07596863       0.00000000
Si       2.25829899      -0.69441012       0.36114505       0.00000000
Si      -0.34440318       1.95026228       1.35154129       0.00000000
Si      -0.16829199      -0.54789786      -2.47667877       0.00000000
Si       2.94622569       1.60627449      -0.40928166       0.00000000
Si       1.47706317      -2.29918689      -2.15004482       0.00000000
Si       1.89356589       2.68042895       1.37562680       0.00000000
Si       0.55140021      -1.98780354       2.93953349       0.00000000
Si      -2.46891240      -1.09362915      -2.83276586       0.00000000
Si      -1.49257125       1.34487375       3.39285723       0.00000000
