10
Lattice="16.28999089631971 0.0 0.0 0.0 16.28999089631971 0.0 0.0 0.0 34.40785480372833" Properties=species:S:1:pos:R:3:initial_magmoms:R:1 pbc="T T T"
Si      -2.31247953      -0.02951748      -0.12104690       0.00000000
Si       1.26874665       1.33895655      -1.54749413       0.00000000
Si       0.48964482      -1.60811622       1.75473276       0.00000000
Si       0.93030561      -2.16560889      -0.62058042       0.00000000
Si       2.53977390      -0.63382761      -1.51817863       0.00000000
Si       2.23862067       2.53837296       0.23517782       0.00000000
Si      -2.47992444      -2.44366290      -0.16440082       0.00000000
Si      -0.96037695      -2.59346574      -2.13043234       0.00000000
Si      -2.73409731       1.10418507       1.95801448       0.00000000
Si       1.95541902      -0.44064450       3.21011843       0.00000000
