10
Lattice="16.28999089631971 0.0 0.0 0.0 16.28999089631971 0.0 0.0 0.0 34.40785480372833" Properties=species:S:1:pos:R:3:initial_magmoms:R:1 pbc="T T T"
Si       1.34671059       1.35490772      -1.34220644       0.00000000
Si       1.35428798      -1.35770614       1.35508530       0.00000000
Si      -1.35842310       1.35586883       1.35556701       0.00000000
Si      -1.34475579      -1.37949682      -1.36841147       0.00000000
Si      -0.10842624       2.58377645      -2.66728119       0.00000000
Si       2.55567524       0.00472410      -2.80391830       0.00000000
Si       2.71343574      -0.00066789       2.71282001       0.00000000
Si      -0.00177561       2.71404758       2.71312968       0.00000000
Si      -0.00128691      -2.71570983       2.71285442       0.00000000
Si      -2.71632492      -0.00044472       2.71330172       0.00000000
