10
Lattice="16.28999089631971 0.0 0.0 0.0 16.28999089631971 0.0 0.0 0.0 34.40785480372833" Properties=species:S:1:pos:R:3:initial_magmoms:R:1 pbc="T T T"
Si      -1.35610992      -1.35739245       1.35721859       0.00000000
Si      -1.35747828       1.35707445      -1.35690892       0.00000000
Si       1.35755973      -1.35819066      -1.35735622       0.00000000
Si       1.35938421       1.35997081       1.35770030       0.00000000
Si      -2.71375110       0.00110548      -2.71405870       0.00000000
Si      -2.71437012       2.71358348       0.00017204       0.00000000
Si       0.00042354       2.71338800      -2.71464363       0.00000000
Si       2.71313462      -0.00018697      -2.71512534       0.00000000
Si       2.71477482       2.71441427      -0.00020645       0.00000000
Si      -0.00118917       2.71125401       2.71846290       0.00000000
