10
Lattice="16.28999089631971 0.0 0.0 0.0 16.28999089631971 0.0 0.0 0.0 34.40785480372833" Properties=species:S:1:pos:R:3:initial_magmoms:R:1 pbc="T T T"
Si       1.16408340       0.09023031       2.06405955       0.00000000
Si      -1.17180486      -1.88977751      -1.03746622       0.00000000
Si       1.83965155       1.18374543      -1.16673660       0.00000000
Si      -1.93108176       1.65069828       0.21467073       0.00000000
Si       0.14245605       2.18984841      -2.51463066       0.00000000
Si      -0.29970342       2.02971771       2.83895928       0.00000000
Si      -2.58356142      -0.54779197      -2.50334488       0.00000000
Si       2.84701212      -0.52125394      -2.51514678       0.00000000
Si      -1.20754512       3.55804551      -1.05625292       0.00000000
Si       3.30752879       1.23823548       1.88575794       0.00000000
