10
Lattice="16.28999089631971 0.0 0.0 0.0 16.28999089631971 0.0 0.0 0.0 34.40785480372833" Properties=species:S:1:pos:R:3:initial_magmoms:R:1 pbc="T T T"
Si       2.21662917       0.03084186       0.67694051       0.00000000
Si      -1.05265980       1.07415445       1.78490847       0.00000000
Si      -0.01788642       1.81867261      -1.59298134       0.00000000
Si      -0.68792670      -2.30068461       0.77042671       0.00000000
Si      -2.94622569      -1.60627449       0.40928166       0.00000000
Si       1.88773407      -1.73736012       2.27580560       0.00000000
Si      -0.31768758       0.11783209       3.72152125       0.00000000
Si       3.48022818      -0.67072120      -1.20606480       0.00000000
Si      -3.29062887       0.34398778       1.76082295       0.00000000
Si      -0.43248321       3.35980435       1.79478353       0.00000000
