10
Lattice="16.28999089631971 0.0 0.0 0.0 16.28999089631971 0.0 0.0 0.0 34.40785480372833" Properties=species:S:1:pos:R:3:initial_magmoms:R:1 pbc="T T T"
Si      -0.85286295       1.60943897      -1.54212651       0.00000000
Si       1.39308822      -1.63165920      -1.13497813       0.00000000
Si      -1.91469402      -1.27852458       0.78928222       0.00000000
Si       1.06979688       0.35459257       2.32693571       0.00000000
Si      -1.08983358       3.09950156       0.51274614       0.00000000
Si      -0.76822011       1.98593345       2.59539114       0.00000000
Si       0.38274984      -3.53667696       0.07617903       0.00000000
Si       3.57385400      -0.62886309      -0.15394083       0.00000000
Si       3.20822495       1.77220865       0.43598217       0.00000000
Si      -0.80133768      -2.93476146       2.15754574       0.00000000
