10
Lattice="16.28999089631971 0.0 0.0 0.0 16.28999089631971 0.0 0.0 0.0 34.40785480372833" Properties=species:S:1:pos:R:3:initial_magmoms:R:1 pbc="T T T"
Si       1.31385433      -1.49916870      -1.22676114       0.00000000
Si      -1.33579629      -1.36819710       1.38195441       0.00000000
Si       1.37992005       1.34465805       1.38253935       0.00000000
Si      -1.32778161       1.26495108      -1.70694710       0.00000000
Si      -2.68078014       2.69711901      -0.01940604       0.00000000
Si       2.72485178       2.69904123       0.03016882       0.00000000
Si      -2.71090035      -2.72438847       0.00981313       0.00000000
Si      -2.69518050      -0.01347183       2.74257938       0.00000000
Si       0.02272455       2.70330921       2.74264820       0.00000000
Si       0.38138215       2.35797750      -3.04394560       0.00000000
