10
Lattice="16.28999089631971 0.0 0.0 0.0 16.28999089631971 0.0 0.0 0.0 34.40785480372833" Properties=species:S:1:pos:R:3:initial_magmoms:R:1 pbc="T T T"
Si      -1.52547705      -0.97321347       1.55204083       0.00000000
Si      -1.55380536       0.72505161      -1.79970385       0.00000000
Si       1.25110458       1.72405215       1.34539402       0.00000000
Si       1.07742060      -2.11960593      -0.97068053       0.00000000
Si      -2.96862444      -2.17306971      -0.11757171       0.00000000
Si      -0.13201416      -2.26528740       3.06215425       0.00000000
Si       2.85229008      -2.72657133       0.51175936       0.00000000
Si       2.57888619       0.45910107       3.05234113       0.00000000
Si      -0.31861611       0.90499095      -3.94462190       0.00000000
Si       2.96026834       2.81707857       0.00839552       0.00000000
