10
Lattice="16.28999089631971 0.0 0.0 0.0 16.28999089631971 0.0 0.0 0.0 34.40785480372833" Properties=species:S:1:pos:R:3:initial_magmoms:R:1 pbc="T T T"
Si       1.70916376       1.09302642      -1.33699850       0.00000000
Si       1.32778161      -1.26495108       1.70694710       0.00000000
Si      -1.25110458      -1.72405215      -1.34539402       0.00000000
Si      -1.35299853       1.43216793       1.68754106       0.00000000
Si       2.66968080       2.68185528       0.25164543       0.00000000
Si       2.64163594      -2.76411978       0.48018597       0.00000000
Si      -2.77658163      -2.69726562       0.20664681       0.00000000
Si      -2.55741597       2.95718886       0.26307228       0.00000000
Si      -0.00801468      -2.63314818       3.08890152       0.00000000
Si       2.70770166       0.07970697       3.08948645       0.00000000
