10
Lattice="16.28999089631971 0.0 0.0 0.0 16.28999089631971 0.0 0.0 0.0 34.40785480372833" Properties=species:S:1:pos:R:3:initial_magmoms:R:1 pbc="T T T"
Si      -1.40760261      -0.24702156      -1.93148601       0.00000000
Si       1.12269051       2.11724388      -0.19278732       0.00000000
Si       1.53253062      -1.82329083      -0.33922723       0.00000000
Si      -1.23518925      -0.17993934       2.14491805       0.00000000
Si      -2.01280869       2.05128567       1.72238936       0.00000000
Si       2.93365719      -0.86622075      -1.90967142       0.00000000
Si       0.90543078       2.47700853      -2.51927572       0.00000000
Si      -2.76744294      -2.00770992      -1.27002904       0.00000000
Si      -0.40334040       3.58306695       0.82479115       0.00000000
Si       1.62667053       0.39868146      -3.41023321       0.00000000
