10
Lattice="16.28999089631971 0.0 0.0 0.0 16.28999089631971 0.0 0.0 0.0 34.40785480372833" Properties=species:S:1:pos:R:3:initial_magmoms:R:1 pbc="T T T"
Si      -1.52603091       1.46582307       1.01757847       0.00000000
Si      -0.21725973       0.35976465      -2.32648840       0.00000000
Si      -1.12269051      -2.11724388       0.19278732       0.00000000
Si       1.95774150       0.54310860       1.77506781       0.00000000
Si       0.47025972       2.37987126       2.05783172       0.00000000
Si       1.44695925       1.95406695      -2.73738723       0.00000000
Si      -3.13549920      -0.06595821       1.91517668       0.00000000
Si       0.50398002      -1.71856242      -3.21744589       0.00000000
Si      -2.53029312      -2.36426544      -1.73869869       0.00000000
Si       3.45835790      -1.38719124      -1.09269086       0.00000000
