10
Lattice="16.28999089631971 0.0 0.0 0.0 16.28999089631971 0.0 0.0 0.0 34.40785480372833" Properties=species:S:1:pos:R:3:initial_magmoms:R:1 pbc="T T T"
Si       0.01296684      -2.14350336      -1.05198634       0.00000000
Si       2.15111798       0.47570058      -1.05009391       0.00000000
Si       0.04660569       0.18731871       2.53207545       0.00000000
Si      -1.04414013      -1.15864254      -2.95494822       0.00000000
Si      -0.96601329       2.58427071      -2.37462502       0.00000000
Si      -3.00993588       1.85354203      -1.42331612       0.00000000
Si       2.61621377       2.79573120      -0.87323744       0.00000000
Si      -0.37193328       0.87495219      -3.91145271       0.00000000
Si       0.50966443       3.87207503      -1.06674732       0.00000000
Si       4.08262328      -0.16074972       0.10329244       0.00000000
