10
Lattice="16.28999089631971 0.0 0.0 0.0 16.28999089631971 0.0 0.0 0.0 34.40785480372833" Properties=species:S:1:pos:R:3:initial_magmoms:R:1 pbc="T T T"
Si       1.34493172       1.35438318      -1.35237052       0.00000000
Si       1.35509668      -1.35643572       1.36086583       0.00000000
Si      -1.35719550       1.35865116       1.36010885       0.00000000
Si      -1.37992005      -1.34465805      -1.38253935       0.00000000
Si      -2.71613988       2.71226871      -0.00330316       0.00000000
Si      -2.71571634      -2.71285515      -0.00058493       0.00000000
Si       2.71210255      -2.71805166      -0.00481710       0.00000000
Si       2.71343833       0.00047241       2.71684573       0.00000000
Si       2.71233061       2.71811682       0.00216770       0.00000000
Si      -0.00154918      -2.71497285       2.71688014       0.00000000
