10
Lattice="16.28999089631971 0.0 0.0 0.0 16.28999089631971 0.0 0.0 0.0 34.40785480372833" Properties=species:S:1:pos:R:3:initial_magmoms:R:1 pbc="T T T"
Si       1.47312099       1.58052096      -0.95240995       0.00000000
Si       0.74303577      -2.17002348      -0.61159996       0.00000000
Si      -2.29855158       0.58156929       0.37982852       0.00000000
Si       1.73315826       0.56773908       1.66396479       0.00000000
Si       2.75434578       0.06152733      -2.34200635       0.00000000
Si      -2.98842819       0.82298709      -2.11288432       0.00000000
Si       0.13543506       3.10663332      -2.16601008       0.00000000
Si       3.71392452      -0.57342429       0.82269227       0.00000000
Si      -2.94524014      -0.99750186       2.32703893       0.00000000
Si       0.19764657      -3.86405316       0.96245705       0.00000000
