10
Lattice="16.28999089631971 0.0 0.0 0.0 16.28999089631971 0.0 0.0 0.0 34.40785480372833" Properties=species:S:1:pos:R:3:initial_magmoms:R:1 pbc="T T T"
Si       0.23347642      -1.13492430       2.00807794       0.00000000
Si      -1.83265336       1.41413490       0.47142228       0.00000000
Si       2.18702535       0.88803306      -0.39142397       0.00000000
Si      -0.78779647      -1.26094374      -1.88555150       0.00000000
Si      -2.23175836       1.98278622      -1.71578305       0.00000000
Si      -1.15290424       0.60960438      -3.26004284       0.00000000
Si       3.33991752      -1.16038557      -0.66871703       0.00000000
Si       1.34234813      -3.14467047       1.64789631       0.00000000
Si      -2.74940569      -2.45107485      -1.18012126       0.00000000
Si       1.07575576       0.29175390       3.74206275       0.00000000
