10
Lattice="16.28999089631971 0.0 0.0 0.0 16.28999089631971 0.0 0.0 0.0 34.40785480372833" Properties=species:S:1:pos:R:3:initial_magmoms:R:1 pbc="T T T"
Si      -1.71253905      -0.42332823       1.50180048       0.00000000
Si      -0.23347642       1.13492430      -2.00807794       0.00000000
Si       1.10887170      -2.00974617      -0.36018163       0.00000000
Si       0.84227934       1.42667820       1.73398481       0.00000000
Si      -0.40555239      -1.68823044       3.00236227       0.00000000
Si       3.28069523      -1.15746966      -0.57812110       0.00000000
Si      -2.06612979       2.54905920      -1.53665565       0.00000000
Si       1.95354893       2.02295736      -2.39950191       0.00000000
Si       0.83775072      -3.26754594       1.63172461       0.00000000
Si      -2.43377880       1.65499884       2.39275797       0.00000000
