10
Lattice="16.28999089631971 0.0 0.0 0.0 16.28999089631971 0.0 0.0 0.0 34.40785480372833" Properties=species:S:1:pos:R:3:initial_magmoms:R:1 pbc="T T T"
Si       1.33768593      -1.52611236       1.21360013       0.00000000
Si       1.47870846       1.27172772      -1.43088585       0.00000000
Si      -1.28728467      -1.52834409      -1.45610682       0.00000000
Si      -1.37068947       1.63514133       1.34386834       0.00000000
Si      -2.55353081       2.61731430      -0.34511098       0.00000000
Si      -0.13543506      -3.10663332       2.16601008       0.00000000
Si       0.11772783       2.45974113      -2.98340353       0.00000000
Si      -3.12386325      -2.28364623       0.05312576       0.00000000
Si       2.41846227       3.13344666      -0.03086386       0.00000000
Si      -2.58792062      -0.24905781      -2.98570886       0.00000000
