10
Lattice="10.86 0.0 0.0 0.0 10.86 0.0 0.0 0.0 10.86" Properties=species:S:1:pos:R:3:initial_magmoms:R:1 pbc="T T T"
Si      -1.17352074      -1.46474250       1.12519374       0.00000000
Si      -1.17352074       1.25025750      -1.58980626       0.00000000
Si       1.57177866       1.27533324       1.39837704       0.00000000
Si       1.54147926      -1.46474250      -1.58980626       0.00000000
Si       1.59879834      -1.47994650       1.57163748       0.00000000
Si      -2.53102074      -0.10724250       2.48269374       0.00000000
Si       0.25936938       2.60080710       2.48167290       0.00000000
Si      -2.53102074       2.60775750      -0.23230626       0.00000000
Si      -2.53102074      -2.82224250      -0.23230626       0.00000000
Si       2.87879052       2.46431862      -0.43953678       0.00000000
