10
Lattice="10.86 0.0 0.0 0.0 10.86 0.0 0.0 0.0 10.86" Properties=species:S:1:pos:R:3:initial_magmoms:R:1 pbc="T T T"
Si      -1.37974128      -1.30891236       1.32432270       0.00000000
Si       1.33525872       1.40608764       1.32432270       0.00000000
Si      -1.37974128       1.40608764      -1.39067730       0.00000000
Si      -0.02224128      -2.66641236       2.68182270       0.00000000
Si       2.69275872       0.04858764       2.68182270       0.00000000
Si      -2.73724128       0.04858764       2.68182270       0.00000000
Si      -0.02224128       2.76358764       2.68182270       0.00000000
Si       2.69275872       2.76358764      -0.03317730       0.00000000
Si      -2.64219456      -0.07321812      -2.83213596       0.00000000
Si      -2.73724128       2.76358764      -0.03317730       0.00000000
