10
Lattice="10.86 0.0 0.0 0.0 10.86 0.0 0.0 0.0 10.86" Properties=species:S:1:pos:R:3:initial_magmoms:R:1 pbc="T T T"
Si      -0.20323404       2.22493164      -0.85813548       0.00000000
Si      -0.74048910      -1.91411844       1.27869984       0.00000000
Si       2.39845272      -0.09877170      -0.55700940       0.00000000
Si      -1.56725004       0.95034774      -2.05888224       0.00000000
Si      -0.36743724      -3.03027666      -0.72859740       0.00000000
Si      -3.08243724      -0.31527666      -0.72859740       0.00000000
Si       0.97119894      -1.47251826       2.99173452       0.00000000
Si      -0.36743724      -0.31527666      -3.44359740       0.00000000
Si      -1.60867008       0.80394408       3.37868718       0.00000000
Si       3.46481784      -1.56458934       0.47825268       0.00000000
