10
Lattice="16.290000149 0.0 0.0 0.0 16.290000149 0.0 0.0 0.0 29.1751946751" Properties=species:S:1:pos:R:3:initial_magmoms:R:1 pbc="T T T"
Si      -1.37028223       1.38725641       1.31259201       0.00000000
Si      -1.36001953      -1.34609158      -1.36700375       0.00000000
Si       1.35519769       1.34739478      -1.37289714       0.00000000
Si       1.34493499      -1.34959393       1.39372822       0.00000000
Si       0.01573614       2.73606843       2.65173344       0.00000000
Si      -2.69415425      -2.71024389       0.00326762       0.00000000
Si       2.67507866      -2.73686826       0.03565209       0.00000000
Si      -0.06551838      -2.62232676       2.78868181       0.00000000
Si      -0.00938304      -2.69634852      -2.73934655       0.00000000
Si       0.00048870       2.69861771      -2.74226407       0.00000000
