10
Lattice="16.290000149 0.0 0.0 0.0 16.290000149 0.0 0.0 0.0 29.1751946751" Properties=species:S:1:pos:R:3:initial_magmoms:R:1 pbc="T T T"
Si      -0.91896778      -1.82840591       1.17380561       0.00000000
Si       1.14769567       0.13471830      -2.05725968       0.00000000
Si       1.56265084       0.78133357       1.59343243       0.00000000
Si      -1.93033244       1.49719762      -0.30940294       0.00000000
Si      -1.94743694      -0.33914151       2.64496480       0.00000000
H       -2.83188621       0.51464997       1.75964352       0.00000000
H        1.87268213      -2.82976851      -0.12609519       0.00000000
Si      -0.04790889       0.95912263       3.27447797       0.00000000
Si       2.39619386       2.71235833       0.57635597       0.00000000
Si       2.67294467       1.97921873      -1.63153524       0.00000000
