10
Lattice="16.290000149 0.0 0.0 0.0 16.290000149 0.0 0.0 0.0 29.1751946751" Properties=species:S:1:pos:R:3:initial_magmoms:R:1 pbc="T T T"
Si      -0.90481177       0.89823061      -0.81177062       0.00000000
Si       0.89536357      -1.58032549       1.48767235       0.00000000
H       -2.01548027      -0.34945308       1.41158344       0.00000000
Si       1.90417070       0.56016424       1.89411199       0.00000000
Si       1.87839992      -1.97606336      -0.66288960       0.00000000
Si      -1.40737456      -1.65763132       1.85291661       0.00000000
Si      -2.21763917      -0.57122515      -2.09022765       0.00000000
Si       0.44339751       2.21105801      -2.20036401       0.00000000
Si      -2.05348484       2.32016843       0.65197808       0.00000000
Si       2.98983405       1.96599125       0.31296231       0.00000000
