10
Lattice="16.290000149 0.0 0.0 0.0 16.290000149 0.0 0.0 0.0 29.1751946751" Properties=species:S:1:pos:R:3:initial_magmoms:R:1 pbc="T T T"
Si       1.35516511      -1.36666585       1.33660319       0.00000000
Si      -1.35487189      -1.36778986      -1.33832453       0.00000000
Si       1.37572309       1.33635016      -1.36192726       0.00000000
Si      -1.37718919       1.34586352       1.35886387       0.00000000
Si       2.64714131       0.07107327       2.65074149       0.00000000
Si       0.02956635      -2.72274972      -2.67236031       0.00000000
Si      -2.68169566      -0.00767259      -2.71454764       0.00000000
Si      -2.70167372       2.70466130      -0.01184513       0.00000000
Si      -2.70198974      -2.72157847       0.03813198       0.00000000
Si       0.03494205       2.71972955      -2.70745807       0.00000000
