10
Lattice="16.290000149 0.0 0.0 0.0 16.290000149 0.0 0.0 0.0 29.1751946751" Properties=species:S:1:pos:R:3:initial_magmoms:R:1 pbc="T T T"
Si       1.37415925       1.34175844      -1.34375112       0.00000000
Si       1.36213723      -1.39372354       1.30529821       0.00000000
Si      -1.35480673      -1.35224920      -1.36087696       0.00000000
Si      -1.35244468       1.36901161       1.35104492       0.00000000
Si       0.00511506       2.69158043      -2.68365111       0.00000000
Si       2.78233203      -0.08101017       2.61640228       0.00000000
Si      -2.73698066       0.00790065       2.66742970       0.00000000
Si       0.01363473      -2.75242359       2.65818116       0.00000000
Si       0.01448181      -2.73092078      -2.68350523       0.00000000
Si       0.02489112       2.73373895       2.68735636       0.00000000
