10
Lattice="16.290000149 0.0 0.0 0.0 16.290000149 0.0 0.0 0.0 29.1751946751" Properties=species:S:1:pos:R:3:initial_magmoms:R:1 pbc="T T T"
Si       1.04648590      -1.11336287      -0.02036429       0.00000000
Si      -1.86986396       1.85329866      -0.72439091       0.00000000
Si      -0.33616044       2.56629567       0.89080622       0.00000000
H        1.22005585       2.17010658      -1.73014739       0.00000000
Si      -0.26122644       1.10658134       2.82033689       0.00000000
Si      -1.83580157      -0.57796106       2.37576528       0.00000000
Si       2.91456284      -0.21295591       1.10092597       0.00000000
Si      -1.24672258       0.77794688      -2.77178937       0.00000000
Si       1.32323671      -1.84650247      -2.22825549       0.00000000
Si       0.21294288      -3.04438763       0.99671218       0.00000000
