10
Lattice="16.290000149 0.0 0.0 0.0 16.290000149 0.0 0.0 0.0 29.1751946751" Properties=species:S:1:pos:R:3:initial_magmoms:R:1 pbc="T T T"
Si       1.21520143      -1.41594310       1.44872288       0.00000000
Si      -1.48859650      -1.25213086      -1.37385992       0.00000000
Si      -1.48199905       1.29832311       1.33972494       0.00000000
Si       1.61702686       1.48789115      -0.93882859       0.00000000
Si       2.55689471      -2.77044033       0.10441802       0.00000000
H        1.15706242      -1.09817407      -3.44675750       0.00000000
Si       0.88725115       3.67774446      -0.53714451       0.00000000
Si      -2.79907815      -2.61918767       0.11101162       0.00000000
H        3.06686946      -0.68015638      -2.20503204       0.00000000
Si      -0.18414216       2.58218820       2.84535462       0.00000000
