10
Lattice="16.290000149 0.0 0.0 0.0 16.290000149 0.0 0.0 0.0 29.1751946751" Properties=species:S:1:pos:R:3:initial_magmoms:R:1 pbc="T T T"
Si      -1.32970384       1.31448898       1.41941407       0.00000000
Si      -1.42687369      -1.35946567      -1.27915636       0.00000000
Si       1.32918256      -1.39580866       1.36869883       0.00000000
Si       1.33530760       1.36478631      -1.40815244       0.00000000
Si       0.01822851      -2.55272447      -2.63686576       0.00000000
Si       2.63316449       2.64865140       0.09747724       0.00000000
Si      -2.60865945       2.68765617       0.03224734       0.00000000
Si      -2.74163798      -0.07615575       2.67567461       0.00000000
Si       2.66598884      -0.07102440       2.77370326       0.00000000
Si       2.71093295      -2.75217924       0.04387074       0.00000000
