10
Lattice="16.290000149 0.0 0.0 0.0 16.290000149 0.0 0.0 0.0 29.1751946751" Properties=species:S:1:pos:R:3:initial_magmoms:R:1 pbc="T T T"
Si       0.88868467      -1.40989951       1.60072623       0.00000000
Si      -2.23212098       0.50658642      -0.32533260       0.00000000
Si       0.56327563      -1.03692367      -2.00722422       0.00000000
Si       1.24457230       1.78345039      -0.84150014       0.00000000
H       -0.02764413      -1.47838267       2.81175939       0.00000000
Si       0.60732379       1.10916656      -2.98905704       0.00000000
Si       2.78371668      -0.07781733       1.98443839       0.00000000
Si       3.30248802       1.17466865       0.04945196       0.00000000
Si       1.16577757       1.45409265       3.05866906       0.00000000
Si      -1.06435603      -2.71841006      -2.07645696       0.00000000
