10
Lattice="16.290000149 0.0 0.0 0.0 16.290000149 0.0 0.0 0.0 29.1751946751" Properties=species:S:1:pos:R:3:initial_magmoms:R:1 pbc="T T T"
Si       1.49046985      -1.17131617      -1.27340972       0.00000000
Si       1.44230032       0.99738784       1.48612607       0.00000000
Si      -1.16167249       1.59746257      -1.21257944       0.00000000
Si      -1.08566335      -1.40582701       1.58114968       0.00000000
H        2.12933108      -2.02320173      -0.19917905       0.00000000
Si      -1.95010850       0.39004776       2.86118217       0.00000000
Si       0.05031981      -2.50276304      -2.48219639       0.00000000
Si       2.51517602      -0.80365087       2.39181163       0.00000000
Si      -0.09687663       1.87289390       3.03235303       0.00000000
Si      -2.54643653       0.24506676      -2.51332632       0.00000000
