10
Lattice="16.290000149 0.0 0.0 0.0 16.290000149 0.0 0.0 0.0 29.1751946751" Properties=species:S:1:pos:R:3:initial_magmoms:R:1 pbc="T T T"
Si       1.33372747       1.34028908      -1.32808404       0.00000000
Si      -1.32998077       1.42009379       1.28592588       0.00000000
Si       1.43420419      -1.34614371       1.26165212       0.00000000
Si      -1.36039420      -1.28193452      -1.41080155       0.00000000
Si       0.05452263      -2.68990582       2.59676738       0.00000000
Si      -2.67864617       0.04632387       2.62308340       0.00000000
Si       0.05576067       2.77025788       2.61077147       0.00000000
Si       2.78101254       0.04243545       2.60023923       0.00000000
Si      -2.71031393      -2.67672721      -0.09992504       0.00000000
Si      -0.04017114      -2.77081825      -2.61951819       0.00000000
