10
Lattice="16.290000149 0.0 0.0 0.0 16.290000149 0.0 0.0 0.0 29.1751946751" Properties=species:S:1:pos:R:3:initial_magmoms:R:1 pbc="T T T"
H        0.75250027       0.10249668       1.30156378       0.00000000
H       -1.38541564       0.83525347       1.61802712       0.00000000
Si       1.53917695      -0.87550606      -1.54622697       0.00000000
Si      -1.85323187      -1.48284613      -0.17117087       0.00000000
Si      -0.34588557       1.94748581      -1.36055603       0.00000000
H        1.93885211       1.65273455       0.26709891       0.00000000
H        2.60907158       1.28091529       0.10065442       0.00000000
Si      -0.75984706       0.91479754       3.00612453       0.00000000
Si       0.09687663      -1.87289390      -3.03235303       0.00000000
Si      -2.13631949       1.18472284      -2.76691711       0.00000000
