10
Lattice="16.290000149 0.0 0.0 0.0 16.290000149 0.0 0.0 0.0 29.1751946751" Properties=species:S:1:pos:R:3:initial_magmoms:R:1 pbc="T T T"
Si      -1.41866353       1.37378458      -1.25214101       0.00000000
Si      -1.30699558      -1.23098644       1.50109294       0.00000000
Si       1.18959355      -1.45533232      -1.40440635       0.00000000
Si       1.84368593       0.94866445       1.10582740       0.00000000
Si       3.44624727      -0.81207280       1.00952009       0.00000000
Si      -0.04434138       2.69399135      -2.61698579       0.00000000
Si       2.59011002      -2.72759762      -0.03719837       0.00000000
Si       2.56904705      -0.11575674      -2.74634860       0.00000000
Si      -2.77457799      -0.00447975      -2.60546159       0.00000000
Si      -2.73556343      -2.64052757       0.17817291       0.00000000
