10
Lattice="16.290000149 0.0 0.0 0.0 16.290000149 0.0 0.0 0.0 29.1751946751" Properties=species:S:1:pos:R:3:initial_magmoms:R:1 pbc="T T T"
Si       1.33114062       1.36008469       1.37889556       0.00000000
Si      -1.29489211      -1.31435866       1.46965959       0.00000000
Si      -1.38891799       1.35993808      -1.35636647       0.00000000
Si       1.40176429      -1.34921926      -1.36816492       0.00000000
Si      -0.10393020      -2.73496071      -2.53471436       0.00000000
Si       0.07201597       2.53864991      -2.77145094       0.00000000
Si      -2.68504814      -2.65911446       0.19409382       0.00000000
Si       2.67716378       2.68928354      -0.00189347       0.00000000
Si       2.70076799       0.01145187       2.74257333       0.00000000
Si       2.75993328      -2.68895774       0.01258618       0.00000000
