10
Lattice="16.290000149 0.0 0.0 0.0 16.290000149 0.0 0.0 0.0 29.1751946751" Properties=species:S:1:pos:R:3:initial_magmoms:R:1 pbc="T T T"
Si       1.31975065       1.34099281       1.39449261       0.00000000
Si      -1.35816899       1.33973848      -1.38075110       0.00000000
Si       1.41903820      -1.38179926      -1.28424247       0.00000000
Si      -1.37472940      -1.36094806       1.36114537       0.00000000
Si       0.03142341      -2.65681757      -2.66141582       0.00000000
Si       2.67535559       2.65544921      -0.00466803       0.00000000
Si       0.12976614       2.53954586      -2.81595478       0.00000000
Si       2.62181036      -2.77915548       0.15698297       0.00000000
Si      -2.86386348      -0.04600296      -2.54730054       0.00000000
Si       2.67237452      -0.02643867       2.75032226       0.00000000
