10
Lattice="16.290000149 0.0 0.0 0.0 16.290000149 0.0 0.0 0.0 29.1751946751" Properties=species:S:1:pos:R:3:initial_magmoms:R:1 pbc="T T T"
Si       1.36031275      -1.35345792       1.35174512       0.00000000
Si      -1.36264222       1.36185704       1.34634771       0.00000000
Si       1.34980570       1.38801878      -1.33502773       0.00000000
Si      -1.34680834      -1.38857916      -1.33858711       0.00000000
Si      -2.78101254      -0.04243545      -2.60023923       0.00000000
Si       0.00094482      -2.71914637       2.69205356       0.00000000
Si       2.79259473       0.05633082      -2.61759847       0.00000000
Si      -0.00239463       2.70568432       2.70920858       0.00000000
Si      -0.02746494       2.72795275      -2.69374572       0.00000000
Si      -2.72689715       0.01355491       2.69628397       0.00000000
