10
Lattice="16.290000149 0.0 0.0 0.0 16.290000149 0.0 0.0 0.0 29.1751946751" Properties=species:S:1:pos:R:3:initial_magmoms:R:1 pbc="T T T"
Si      -1.35532313       1.40954113      -1.31288376       0.00000000
Si       1.17191890       1.46758240       1.45064611       0.00000000
Si      -1.48793513      -1.19980738       1.43520368       0.00000000
Si       1.00846504      -1.23950611      -1.84323045       0.00000000
Si      -2.46112417      -0.29716218      -2.56137787       0.00000000
Si      -1.04845699      -2.24748245      -2.56353683       0.00000000
Si       2.40310082       0.49634001      -2.76175310       0.00000000
Si      -0.12976614      -2.53954586       2.81595478       0.00000000
Si       2.54558945       0.11590335       2.81128675       0.00000000
Si       2.47093238       2.95135707       0.17612161       0.00000000
