10
Lattice="16.290000149 0.0 0.0 0.0 16.290000149 0.0 0.0 0.0 29.1751946751" Properties=species:S:1:pos:R:3:initial_magmoms:R:1 pbc="T T T"
Si      -1.31975065      -1.34099281      -1.39449261       0.00000000
Si       1.35560494       1.31445640      -1.39916065       0.00000000
Si      -1.37891593       1.35941680       1.33549454       0.00000000
Si       1.35262387      -1.36743148       1.35582965       0.00000000
Si       2.69956253       2.68407074      -0.03652734       0.00000000
Si      -2.69448005      -2.70194087      -0.03334725       0.00000000
Si      -0.01826109       2.71352306       2.68893182       0.00000000
Si       0.09928755      -2.72279207      -2.67873509       0.00000000
Si       2.70047477      -0.01084914       2.71758186       0.00000000
Si      -0.01806561       2.66613545      -2.75980128       0.00000000
