10
Lattice="16.290000149 0.0 0.0 0.0 16.290000149 0.0 0.0 0.0 29.1751946751" Properties=species:S:1:pos:R:3:initial_magmoms:R:1 pbc="T T T"
Si      -1.35348724      -1.33503067      -1.31755179       0.00000000
Si       1.40051647      -1.27226530       1.36720797       0.00000000
Si       1.37945350       1.33957558      -1.34194225       0.00000000
Si      -1.18959355       1.45533232       1.40440635       0.00000000
Si       2.25665372       0.64325953       2.41392643       0.00000000
Si       0.65409238       2.40399677       2.51023375       0.00000000
Si       0.07988616      -2.67107132      -2.60120201       0.00000000
Si      -2.66424581       0.09174528      -2.61543950       0.00000000
Si       0.01216863      -2.58760136       2.71950742       0.00000000
Si      -2.72758133      -2.58908375       0.11054481       0.00000000
