10
Lattice="16.290000149 0.0 0.0 0.0 16.290000149 0.0 0.0 0.0 29.1751946751" Properties=species:S:1:pos:R:3:initial_magmoms:R:1 pbc="T T T"
Si      -1.33503409      -1.37696113      -1.34512235       0.00000000
Si       1.34384519      -1.35796699       1.36280252       0.00000000
Si       1.33078061       1.35783667      -1.38310845       0.00000000
Si      -1.38762945       1.36111096       1.32370776       0.00000000
Si      -2.66487950       0.03202614      -2.65602220       0.00000000
Si      -0.03448919       2.71344161       2.68481811       0.00000000
Si       2.69143545       2.71194293      -0.02967117       0.00000000
Si       2.69329251       0.00306252       2.71285548       0.00000000
Si       2.70213798      -2.71379999       0.00889843       0.00000000
Si       2.70969654      -0.00158013      -2.71860299       0.00000000
