10
Lattice="16.290000149 0.0 0.0 0.0 16.290000149 0.0 0.0 0.0 29.1751946751" Properties=species:S:1:pos:R:3:initial_magmoms:R:1 pbc="T T T"
Si       1.34620561      -1.34493499       1.36536994       0.00000000
Si      -1.35402481       1.32854725       1.40172223       0.00000000
Si      -1.42201927      -1.45974691      -1.22517146       0.00000000
Si       1.46038222       1.43712173      -1.21439997       0.00000000
Si      -0.99645931       0.92668924      -3.42160848       0.00000000
Si       0.04331511       2.77994880      -2.46879914       0.00000000
Si      -2.82840015      -0.09612729      -2.47944808       0.00000000
Si       2.69008175      -2.64803726      -0.05805864       0.00000000
Si      -0.08412156      -2.61386084      -2.78237121       0.00000000
Si      -0.00879660      -2.71656929       2.71110497       0.00000000
