10
Lattice="16.290000149 0.0 0.0 0.0 16.290000149 0.0 0.0 0.0 29.1751946751" Properties=species:S:1:pos:R:3:initial_magmoms:R:1 pbc="T T T"
Si      -1.36065484      -1.35410626      -1.35343728       0.00000000
Si      -1.36813195       1.35395965       1.35194935       0.00000000
Si       1.34941474      -1.36057339       1.36472808       0.00000000
Si       1.35498592       1.34403904      -1.37581466       0.00000000
Si       2.68952789       2.69508278       0.01878883       0.00000000
Si       0.01826109      -2.71352306      -2.68893182       0.00000000
Si      -2.69143545      -2.71194293       0.02967117       0.00000000
Si      -0.02145393       2.69135237      -2.73511615       0.00000000
Si       2.71389773      -0.00594585       2.71297218       0.00000000
Si      -2.71965951       2.71288775      -0.00796483       0.00000000
