10
Lattice="16.290000149 0.0 0.0 0.0 16.290000149 0.0 0.0 0.0 29.1751946751" Properties=species:S:1:pos:R:3:initial_magmoms:R:1 pbc="T T T"
Si       0.27841402      -0.81788833      -2.15455895       0.00000000
Si      -2.26812025       0.48661488      -0.11999758       0.00000000
Si       1.28656955       1.98567934       0.11780944       0.00000000
Si       1.02765629      -1.54482958       1.48312102       0.00000000
Si      -2.54487106       1.21975449       2.08789363       0.00000000
Si       3.35502490       1.26185925       0.96318988       0.00000000
Si       2.57199717      -0.23534163       2.67256453       0.00000000
Si       1.19361881       0.91171873      -3.43540835       0.00000000
Si       1.92601722      -2.47516778      -2.05880596       0.00000000
Si       2.38642149      -2.89388595       0.15535791       0.00000000
