10
Lattice="16.290000149 0.0 0.0 0.0 16.290000149 0.0 0.0 0.0 29.1751946751" Properties=species:S:1:pos:R:3:initial_magmoms:R:1 pbc="T T T"
Si      -1.16152262       0.16900875      -2.01294256       0.00000000
Si       0.22044606       1.84902905       1.43894978       0.00000000
Si       2.30492425      -0.18065610      -0.59949190       0.00000000
Si      -1.14925625      -2.05548851       0.59742046       0.00000000
H       -2.70288244       0.60339790       0.02439046       0.00000000
H       -2.22905520      -0.93993301      -1.79056922       0.00000000
Si      -3.16043596      -0.68242069       0.68938067       0.00000000
Si       1.65956331       0.66326365       2.88358872       0.00000000
Si       1.86952513      -1.99819658      -2.07978293       0.00000000
Si       0.31235912      -0.91308709      -3.44623235       0.00000000
