10
Lattice="16.290000149 0.0 0.0 0.0 16.290000149 0.0 0.0 0.0 29.1751946751" Properties=species:S:1:pos:R:3:initial_magmoms:R:1 pbc="T T T"
H       -0.88444927       0.85379149      -0.88532128       0.00000000
Si       1.02846916      -1.48926439      -1.47115919       0.00000000
Si      -1.39442401      -1.23649246       1.42412878       0.00000000
Si       1.89952805       1.29826414       0.62951318       0.00000000
Si       1.94743694       0.33914151      -2.64496480       0.00000000
Si       0.01710450       1.83633914      -2.95436774       0.00000000
H       -2.79425631       0.43577379      -2.12704674       0.00000000
Si       2.14601204       0.78319063       2.92816608       0.00000000
Si       0.00394218      -2.66248649       2.64791149       0.00000000
Si       2.53441451      -2.79526629      -0.17140427       0.00000000
