10
Lattice="16.290000149 0.0 0.0 0.0 16.290000149 0.0 0.0 0.0 29.1751946751" Properties=species:S:1:pos:R:3:initial_magmoms:R:1 pbc="T T T"
Si       1.43848597      -1.34980570       1.28604258       0.00000000
Si      -1.25711560      -1.36640521      -1.45788448       0.00000000
Si       1.37842723       1.32683680      -1.39013968       0.00000000
Si      -1.42977331       1.28143657       1.41324643       0.00000000
Si      -2.68812695       2.66479805      -0.02800819       0.00000000
Si       0.08829180      -2.75846718       2.59166172       0.00000000
Si      -0.02852379       2.70001540       2.67037639       0.00000000
Si      -2.59496444      -2.81316900      -0.20270925       0.00000000
Si      -2.72958501      -0.30646377       2.69047810       0.00000000
Si       2.74944252       2.69890279      -0.06045100       0.00000000
