10
Lattice="16.290000149 0.0 0.0 0.0 16.290000149 0.0 0.0 0.0 29.1751946751" Properties=species:S:1:pos:R:3:initial_magmoms:R:1 pbc="T T T"
Si       1.36692649       1.35021295      -1.35077067       0.00000000
Si      -1.34395759      -1.36961434      -1.36263330       0.00000000
Si       1.35180937      -1.31903389       1.40738222       0.00000000
Si      -1.36283770       1.37349136       1.34964451       0.00000000
Si       2.67142970       2.64512135       0.12498653       0.00000000
Si      -2.69956253      -2.68407074       0.03652734       0.00000000
Si       0.08242740      -2.74559808      -2.65615349       0.00000000
Si      -0.00441459       2.76180663      -2.65526073       0.00000000
Si       2.77058694      -2.64963368       0.10538080       0.00000000
Si      -2.71762814      -0.01793529      -2.72327394       0.00000000
