10
Lattice="16.290000149 0.0 0.0 0.0 16.290000149 0.0 0.0 0.0 29.1751946751" Properties=species:S:1:pos:R:3:initial_magmoms:R:1 pbc="T T T"
Si       1.46093397       1.17871183      -1.41508447       0.00000000
Si      -1.39549915      -1.32054886      -1.36636189       0.00000000
Si      -1.32950836       1.44072019       1.31419081       0.00000000
Si       1.38891799      -1.35993808       1.35636647       0.00000000
Si       0.14928156      -2.58862763      -2.55951065       0.00000000
Si       0.05848110       2.35379099      -2.87124761       0.00000000
H       -0.83751778       3.09821142      -1.89116529       0.00000000
Si      -2.67071294       0.02204037       2.67393577       0.00000000
Si       2.68054559       2.66883959      -0.01754304       0.00000000
Si      -2.61105896      -2.75555127       0.07750099       0.00000000
