10
Lattice="16.290000149 0.0 0.0 0.0 16.290000149 0.0 0.0 0.0 29.1751946751" Properties=species:S:1:pos:R:3:initial_magmoms:R:1 pbc="T T T"
Si       2.24577200      -0.50451759       0.27608487       0.00000000
Si      -1.57457512      -1.68454240      -0.44457162       0.00000000
Si      -0.73107892       0.63531001       2.17839450       0.00000000
Si      -0.07493400       1.45971433      -1.92953068       0.00000000
H        0.26122644      -1.10658134      -2.82033689       0.00000000
Si      -2.82667341      -0.57616102      -2.04841959       0.00000000
Si      -1.30059361       3.31047012      -1.25173255       0.00000000
Si       1.30771234      -2.21994421      -2.84070118       0.00000000
Si       3.17578929      -1.31953725      -1.71941092       0.00000000
H        0.00584811       3.86149567      -0.34231256       0.00000000
