10
Lattice="16.290000149 0.0 0.0 0.0 16.290000149 0.0 0.0 0.0 29.1751946751" Properties=species:S:1:pos:R:3:initial_magmoms:R:1 pbc="T T T"
Si      -0.97073740       1.45210690       1.51255879       0.00000000
Si       1.56410065      -1.28234881       1.12289489       0.00000000
Si       1.61067376       1.03876444      -1.39591636       0.00000000
Si      -1.89089435      -1.50358330      -0.32661630       0.00000000
H       -0.37854702      -2.31588416      -2.03117705       0.00000000
H        0.80780482      -0.76564630      -3.06564193       0.00000000
H       -2.51646293      -1.58312737      -1.71471372       0.00000000
Si       0.17381430      -2.71948520       2.29955967       0.00000000
Si      -2.65854431       2.38145141       0.19885813       0.00000000
H       -2.11879145       2.64157013      -1.18486301       0.00000000
