10
Lattice="16.290000149 0.0 0.0 0.0 16.290000149 0.0 0.0 0.0 29.1751946751" Properties=species:S:1:pos:R:3:initial_magmoms:R:1 pbc="T T T"
Si       1.29785689       1.28386508       1.50562968       0.00000000
Si      -1.33530760      -1.36478631       1.40815244       0.00000000
Si       1.48199905      -1.29832311      -1.33972494       0.00000000
Si      -1.35685927       1.38630964      -1.39830873       0.00000000
Si      -0.00659745      -2.55045397      -2.71358486       0.00000000
Si      -2.60784983       2.72934685       0.08790282       0.00000000
Si       2.69720048      -2.71426621       0.10899794       0.00000000
Si       2.28638297       3.07102960       0.35302861       0.00000000
Si       2.36925020       2.37942135      -1.87686945       0.00000000
Si       0.16487109       2.75948335      -2.67982916       0.00000000
