10
Lattice="16.290000149 0.0 0.0 0.0 16.290000149 0.0 0.0 0.0 29.1751946751" Properties=species:S:1:pos:R:3:initial_magmoms:R:1 pbc="T T T"
H       -1.04648590       1.11336287       0.02036429       0.00000000
Si      -0.83354302      -1.93102476       1.01707646       0.00000000
Si       0.27675081      -0.73313960      -2.20789121       0.00000000
Si       1.86807694       0.90040695       1.12129026       0.00000000
Si       2.54487106      -1.21975449      -2.08789363       0.00000000
Si      -2.39619386      -2.71235833      -0.57635597       0.00000000
Si       0.93805966       1.71542661       3.11678605       0.00000000
H        0.17356995       3.28346945      -1.70978311       0.00000000
Si      -2.88228747       0.53540181       2.39612956       0.00000000
Si       0.93542068      -3.08520385       2.05092866       0.00000000
