10
Lattice="16.290000149 0.0 0.0 0.0 16.290000149 0.0 0.0 0.0 29.1751946751" Properties=species:S:1:pos:R:3:initial_magmoms:R:1 pbc="T T T"
Si       1.17607285       0.54576388       1.05051123       0.00000000
Si      -1.30644172      -0.55102554      -0.90941999       0.00000000
Si      -0.08078211      -2.40178133      -1.58721812       0.00000000
Si      -0.36870786       1.81384265       2.24366000       0.00000000
Si       2.84428453       1.32787936      -0.39835811       0.00000000
Si      -3.09930285      -1.13507092       0.52197341       0.00000000
Si       2.31177908      -0.96050728       2.43167399       0.00000000
Si      -2.33049629       0.78454270      -2.52572578       0.00000000
Si      -1.84041164       3.02230002       0.78589222       0.00000000
H       -0.33216939       0.69861295      -3.60905911       0.00000000
