10
Lattice="16.290000149 0.0 0.0 0.0 16.290000149 0.0 0.0 0.0 29.1751946751" Properties=species:S:1:pos:R:3:initial_magmoms:R:1 pbc="T T T"
Si       1.34412049      -1.33082785      -1.38666783       0.00000000
Si      -1.36277254       1.33843528      -1.36536994       0.00000000
Si      -1.35184195      -1.39181761       1.32694620       0.00000000
Si       1.37140624       1.34799751       1.35518779       0.00000000
Si      -2.73066014      -0.04551426       2.64931190       0.00000000
Si       2.68995143      -2.71137278      -0.03206354       0.00000000
Si      -2.69858513      -0.06524145      -2.70354859       0.00000000
Si      -2.71863812       2.68996772       0.00026258       0.00000000
Si       0.02738349       2.71396289       2.70524075       0.00000000
Si       2.71870451       2.70187571      -0.00262577       0.00000000
