10
Lattice="16.290000149 0.0 0.0 0.0 16.290000149 0.0 0.0 0.0 29.1751946751" Properties=species:S:1:pos:R:3:initial_magmoms:R:1 pbc="T T T"
H       -0.67021948       0.37181925       0.16644449       0.00000000
Si       1.92634139       0.63307828       1.23069724       0.00000000
H       -1.85657132      -1.17841861       1.20090936       0.00000000
H        1.77984542      -0.24143409      -1.97869088       0.00000000
Si       0.37090701      -0.68017267      -2.68721048       0.00000000
Si       0.13264947       2.17622999       1.83617005       0.00000000
Si      -2.60907158      -1.28091529      -0.10065442       0.00000000
Si      -1.06989463      -2.15642135      -1.64688139       0.00000000
Si      -0.86436370       1.26457642      -2.49911800       0.00000000
Si       1.16514226      -1.26053650       2.50448624       0.00000000
