10
Lattice="16.290000149 0.0 0.0 0.0 16.290000149 0.0 0.0 0.0 29.1751946751" Properties=species:S:1:pos:R:3:initial_magmoms:R:1 pbc="T T T"
Si       1.27895560      -1.37316719       1.38716672       0.00000000
Si      -1.34619665      -1.21391338      -1.48174103       0.00000000
Si      -1.43234857       1.30717314       1.35188516       0.00000000
Si       1.33611722       1.40647698      -1.35249696       0.00000000
Si      -1.63102486       0.61178562      -3.05165826       0.00000000
Si      -0.29681683       2.59017355      -2.56627055       0.00000000
Si       2.60865945      -2.68765617      -0.03224734       0.00000000
Si      -2.82475607      -2.52073254      -0.10893726       0.00000000
Si      -0.07003560       2.70234650       2.67006422       0.00000000
Si       2.58041259      -0.04613002       2.81252669       0.00000000
