10
Lattice="16.290000149 0.0 0.0 0.0 16.290000149 0.0 0.0 0.0 29.1751946751" Properties=species:S:1:pos:R:3:initial_magmoms:R:1 pbc="T T T"
Si      -1.40386570       1.31898502       1.31238778       0.00000000
Si       1.37079374      -1.23815404       1.44495987       0.00000000
Si       1.33177919       1.39789378      -1.33867463       0.00000000
Si      -1.39134532      -1.37731951      -1.31113325       0.00000000
Si       2.56836939      -2.64204254      -0.02707458       0.00000000
Si      -0.12050853       2.73070901       2.63536616       0.00000000
Si       2.63170491       0.03878649      -2.75305890       0.00000000
Si       0.00757974      -2.66769929       2.74185562       0.00000000
Si      -2.73355325      -0.01093059      -2.68382616       0.00000000
Si      -2.73146813       2.69316056      -0.01487935       0.00000000
