10
Lattice="16.290000149 0.0 0.0 0.0 16.290000149 0.0 0.0 0.0 29.1751946751" Properties=species:S:1:pos:R:3:initial_magmoms:R:1 pbc="T T T"
Si       1.32022306      -1.48888373      -1.20871665       0.00000000
Si       1.36039420       1.28193452       1.41080155       0.00000000
Si      -1.34991973      -1.39479269       1.31087651       0.00000000
Si      -1.38274408       1.32488311      -1.36534951       0.00000000
Si       2.69412167       2.62222361       0.08271751       0.00000000
Si      -2.69806385       2.64802697       0.03532241       0.00000000
Si      -2.67393836      -0.04314622       2.69556042       0.00000000
Si       0.03041343       2.70202832       2.69672743       0.00000000
Si       0.03461625      -2.75165196       2.65051392       0.00000000
Si      -2.68672601      -2.71957695      -0.09412793       0.00000000
