10
Lattice="16.290000149 0.0 0.0 0.0 16.290000149 0.0 0.0 0.0 29.1751946751" Properties=species:S:1:pos:R:3:initial_magmoms:R:1 pbc="T T T"
Si      -1.66821167      -0.78211549       1.44886934       0.00000000
Si       1.10580105       1.70670332       1.24849411       0.00000000
Si      -0.51230584       0.67966768      -2.22945168       0.00000000
Si       1.41266718      -1.95032027      -0.00215896       0.00000000
H       -2.84428453      -1.32787936       0.39835811       0.00000000
Si       2.46112417       0.29716218       2.56137787       0.00000000
Si       0.89667328      -2.86050774      -2.09364114       0.00000000
Si       3.46958921      -0.94234393       0.71814742       0.00000000
Si      -0.53250544      -2.28838664       2.83003210       0.00000000
Si       1.66638394      -0.74433898      -3.26686325       0.00000000
