10
Lattice="16.290000149 0.0 0.0 0.0 16.290000149 0.0 0.0 0.0 29.1751946751" Properties=species:S:1:pos:R:3:initial_magmoms:R:1 pbc="T T T"
Si      -1.30847797      -1.28966302       1.47072448       0.00000000
Si      -1.34876314       1.36277254      -1.37620560       0.00000000
Si       1.43171182      -1.37174833      -1.28407326       0.00000000
Si       1.37205784       1.40584330       1.31236152       0.00000000
Si      -2.62158230      -2.64971513       0.12653574       0.00000000
Si       2.64727163       0.06325407      -2.72793613       0.00000000
Si       2.74664064      -2.63524961       0.18888605       0.00000000
Si      -2.71213841       2.71018361       0.01457301       0.00000000
Si       2.71174745       0.06981894       2.73459391       0.00000000
Si      -2.73926126      -0.01617597      -2.71603266       0.00000000
