10
Lattice="16.290000149 0.0 0.0 0.0 16.290000149 0.0 0.0 0.0 29.1751946751" Properties=species:S:1:pos:R:3:initial_magmoms:R:1 pbc="T T T"
Si       1.58338801      -1.08110215       1.32003168       0.00000000
Si      -1.22686507      -1.13999050      -1.62683803       0.00000000
Si      -1.60036219      -0.07770330       1.79523725       0.00000000
Si       1.29981169       1.58790034      -1.27723167       0.00000000
H        0.94501549      -1.90104302       2.40333584       0.00000000
H       -0.48368268      -2.81220789       1.84894879       0.00000000
Si      -1.71664022       2.22840686       2.02347480       0.00000000
Si      -2.63920808      -2.46609425      -0.38630875       0.00000000
Si       2.81787681      -2.45200340      -0.09881638       0.00000000
Si       0.13462056      -2.50670522      -2.89318736       0.00000000
