10
Lattice="16.290000149 0.0 0.0 0.0 16.290000149 0.0 0.0 0.0 29.1751946751" Properties=species:S:1:pos:R:3:initial_magmoms:R:1 pbc="T T T"
Si      -1.35019417      -1.40866147       1.30561914       0.00000000
Si       1.33949011      -1.36249561      -1.37257621       0.00000000
Si      -1.43848597       1.34980570      -1.28604258       0.00000000
Si       1.38124301       1.35899326       1.35547954       0.00000000
Si      -2.58468296      -0.03776022       2.72446720       0.00000000
Si      -0.06005874       2.67664250      -2.67618226       0.00000000
Si       0.00471384       2.75821338       2.65217107       0.00000000
Si       2.71305315      -2.70392825      -0.01817615       0.00000000
Si      -0.02259174      -2.78283702       2.63288627       0.00000000
Si       2.69878311      -0.01223379      -2.72668452       0.00000000
