10
Lattice="16.290000149 0.0 0.0 0.0 16.290000149 0.0 0.0 0.0 29.1751946751" Properties=species:S:1:pos:R:3:initial_magmoms:R:1 pbc="T T T"
Si       1.34065072       1.33481890      -1.37173013       0.00000000
Si      -1.42630354       1.37541358       1.24805648       0.00000000
Si       1.34610787      -1.38142459       1.34290504       0.00000000
Si      -1.38601837      -1.34881201      -1.33914144       0.00000000
Si      -0.16250904      -2.70870122       2.53952565       0.00000000
Si       2.69780321       2.65326635       0.00924854       0.00000000
Si      -0.01573614      -2.73606843      -2.65173344       0.00000000
Si       2.71363709      -0.02463048      -2.69327892       0.00000000
Si      -0.01619226       2.66768300      -2.74900354       0.00000000
Si      -2.81465139       0.06007752       2.60035593       0.00000000
