10
Lattice="16.290000149 0.0 0.0 0.0 16.290000149 0.0 0.0 0.0 29.1751946751" Properties=species:S:1:pos:R:3:initial_magmoms:R:1 pbc="T T T"
Si      -1.41587794       1.44682894       1.13678229       0.00000000
Si      -1.35715249      -1.31844745      -1.38097866       0.00000000
Si       1.35400852       1.38476404      -1.34162133       0.00000000
Si       1.33506325      -1.31113324       1.43763689       0.00000000
H       -0.56360143       2.38032740       1.94210518       0.00000000
Si      -2.69780321      -2.65326635      -0.00924854       0.00000000
Si       0.01583388      -2.67789683      -2.70252746       0.00000000
Si       2.72201015      -2.67573026       0.09245619       0.00000000
Si       2.73587294       0.03644073      -2.67460680       0.00000000
Si      -2.71912682       2.72644104      -0.29315236       0.00000000
