10
Lattice="16.290000149 0.0 0.0 0.0 16.290000149 0.0 0.0 0.0 29.1751946751" Properties=species:S:1:pos:R:3:initial_magmoms:R:1 pbc="T T T"
Si      -1.22565961       1.85075579       0.67779812       0.00000000
Si      -1.53370351      -0.71299702      -1.61519713       0.00000000
Si       1.62745246       0.67289104      -1.55605901       0.00000000
Si       0.07493400      -1.45971433       1.92953068       0.00000000
H        0.33616044      -2.56629567      -0.89080622       0.00000000
H        0.08078211       2.40178133       1.58721812       0.00000000
H        1.55621629      -0.39618909      -2.62095361       0.00000000
Si      -2.75173941      -2.03587535      -0.11888892       0.00000000
H       -0.25138728       3.10039428      -2.02184099       0.00000000
Si       2.32070600      -1.96423193       2.20561554       0.00000000
