10
Lattice="16.290000149 0.0 0.0 0.0 16.290000149 0.0 0.0 0.0 29.1751946751" Properties=species:S:1:pos:R:3:initial_magmoms:R:1 pbc="T T T"
Si      -1.34320825      -1.32993190      -1.40898685       0.00000000
Si       1.35607071       1.34578207      -1.39437008       0.00000000
Si      -1.38694690       1.36459702       1.34518070       0.00000000
Si       1.38344748      -1.35620767       1.35874717       0.00000000
Si       2.65815498      -2.71700912      -0.06529409       0.00000000
Si      -2.73603585      -0.06328665       2.64478975       0.00000000
Si       0.02893104       2.71635752       2.66661279       0.00000000
Si      -2.68045436      -2.70391196      -0.05872967       0.00000000
Si      -2.72201015       2.67573026      -0.09245619       0.00000000
Si       2.75499578       0.05540229       2.65861879       0.00000000
