10
Lattice="16.290000149 0.0 0.0 0.0 16.290000149 0.0 0.0 0.0 29.1751946751" Properties=species:S:1:pos:R:3:initial_magmoms:R:1 pbc="T T T"
Si       1.35420726      -1.38847816      -1.33027218       0.00000000
Si       1.36482997       1.32988303       1.37887805       0.00000000
Si      -1.34040637      -1.35329176       1.38561752       0.00000000
Si      -1.34842105       1.38450340      -1.36224819       0.00000000
Si      -2.69229719       2.68760567       0.06118038       0.00000000
Si       2.71107956       2.67766877       0.01012379       0.00000000
Si      -2.69687468      -2.70260876       0.03063395       0.00000000
Si       2.70023042      -0.05927931      -2.71106120       0.00000000
Si      -2.69535971       0.05209542      -2.75134339       0.00000000
Si       0.03417764       2.67941180       2.76965958       0.00000000
