10
Lattice="16.290000149 0.0 0.0 0.0 16.290000149 0.0 0.0 0.0 29.1751946751" Properties=species:S:1:pos:R:3:initial_magmoms:R:1 pbc="T T T"
Si       1.53370351       0.71299702       1.61519713       0.00000000
Si      -1.21803589      -1.32287833       1.49630821       0.00000000
Si       0.62314138      -1.07535178      -2.04739846       0.00000000
Si      -1.49348350       1.86483035      -0.35053996       0.00000000
H        1.86986396      -1.85329866       0.72439091       0.00000000
H        3.08991981       0.31680792      -1.00575649       0.00000000
Si      -1.87817186       1.20239749      -2.56899259       0.00000000
Si       3.16115598       1.38588805       0.05913812       0.00000000
Si       0.30804390       2.56375280       2.29299525       0.00000000
Si      -2.55251270       0.22190238       2.65424251       0.00000000
