10
Lattice="16.290000149 0.0 0.0 0.0 16.290000149 0.0 0.0 0.0 29.1751946751" Properties=species:S:1:pos:R:3:initial_magmoms:R:1 pbc="T T T"
Si      -1.32499603      -1.33633550      -1.33711084       0.00000000
Si       1.31703055      -1.43546178       1.27542281       0.00000000
Si      -1.44278902       1.33168796       1.28257073       0.00000000
Si       1.29908210       1.29036023      -1.47213656       0.00000000
Si       2.63172772      -0.05203841       2.63898388       0.00000000
Si      -0.07384257       2.68012531       2.62045764       0.00000000
Si      -2.74206314       0.00649156      -2.59151001       0.00000000
Si       2.66139506       2.68553359      -0.15395750       0.00000000
Si      -0.15105717       2.67520573      -2.69821245       0.00000000
Si      -0.08125452      -2.77039471       2.60977951       0.00000000
