10
Lattice="16.290000149 0.0 0.0 0.0 16.290000149 0.0 0.0 0.0 29.1751946751" Properties=species:S:1:pos:R:3:initial_magmoms:R:1 pbc="T T T"
Si       2.29998512       0.06309117      -0.45084428       0.00000000
Si      -0.86643253       2.07513425      -0.78930572       0.00000000
Si      -0.14281443       0.41805027       2.35744326       0.00000000
Si      -0.92084113      -2.08009944      -0.81547587       0.00000000
H       -2.30993831       0.20111634       0.91685967       0.00000000
H       -1.01631682       2.87228541       0.48591287       0.00000000
Si      -3.59067441       0.16324209       0.09662824       0.00000000
Si      -2.98929648      -1.35627935      -1.66085631       0.00000000
Si       3.07170759       2.10968534       0.42651217       0.00000000
Si       2.06156468       0.03798828       3.16040296       0.00000000
