10
Lattice="16.290000149 0.0 0.0 0.0 16.290000149 0.0 0.0 0.0 29.1751946751" Properties=species:S:1:pos:R:3:initial_magmoms:R:1 pbc="T T T"
Si       1.32331816       1.32527296      -1.36419097       0.00000000
Si      -1.25779978       1.40111920       1.36461722       0.00000000
Si      -1.72538795      -0.94040542      -1.27515790       0.00000000
Si       1.45013927      -1.38484549       1.22607589       0.00000000
Si      -3.43143966       0.72671320      -1.14458957       0.00000000
Si      -2.57272859       2.66462048      -0.10834209       0.00000000
Si      -2.59100597      -2.66871416       0.10670244       0.00000000
Si       2.58567100      -0.10184508      -2.69207982       0.00000000
Si      -2.66900249      -0.00358380       2.62206519       0.00000000
Si       2.81245224       0.01032786       2.54425494       0.00000000
