10
Lattice="16.290000149 0.0 0.0 0.0 16.290000149 0.0 0.0 0.0 29.1751946751" Properties=species:S:1:pos:R:3:initial_magmoms:R:1 pbc="T T T"
Si       1.34991973       1.39479269      -1.31087651       0.00000000
Si      -1.32401863       1.35164647       1.38468391       0.00000000
Si      -1.33680628      -1.32478426      -1.40500444       0.00000000
Si       1.38453598      -1.35685927       1.33963741       0.00000000
Si       2.67014279      -0.09409104      -2.51959315       0.00000000
Si       0.02106297      -2.71842635       2.66967619       0.00000000
Si       2.71031393       2.67672721       0.09992504       0.00000000
Si      -0.03282435       2.71967580      -2.67622602       0.00000000
Si      -2.71125875      -0.00760743       2.68922357       0.00000000
Si      -2.69423570       2.71255055       0.07107077       0.00000000
