10
Lattice="16.290000149 0.0 0.0 0.0 16.290000149 0.0 0.0 0.0 29.1751946751" Properties=species:S:1:pos:R:3:initial_magmoms:R:1 pbc="T T T"
Si       1.34181220      -1.35814618       1.36213149       0.00000000
Si      -1.35314027      -1.35233065      -1.36111036       0.00000000
Si       1.35779269       1.35246097      -1.36253994       0.00000000
Si      -1.32804593       1.34917039       1.39477853       0.00000000
Si      -2.67168546       2.70703964       0.02614097       0.00000000
Si       2.69287223       0.02656899       2.68756058       0.00000000
Si       0.03448919      -2.71344161      -2.68481811       0.00000000
Si      -2.69139636      -2.71026506       0.01896388       0.00000000
Si       2.69810132       2.71407692       0.00414288       0.00000000
Si      -2.69897121       0.02821428      -2.71571465       0.00000000
