10
Lattice="16.290000149 0.0 0.0 0.0 16.290000149 0.0 0.0 0.0 29.1751946751" Properties=species:S:1:pos:R:3:initial_magmoms:R:1 pbc="T T T"
Si      -1.34620561       1.34493499      -1.36536994       0.00000000
Si      -1.35500221      -1.37163430       1.34573503       0.00000000
Si       1.35791812       1.34799751       1.36712045       0.00000000
Si       1.34387614      -1.30310227      -1.42342857       0.00000000
Si      -2.76822489      -0.11481192      -2.59054139       0.00000000
Si       0.11417661       2.78205672      -2.57976991       0.00000000
Si      -2.70023042       2.67348224       0.03635229       0.00000000
Si       2.69229719      -2.68760567      -0.06118038       0.00000000
Si       0.00777033      -2.71006958       2.71110497       0.00000000
Si      -2.71086779      -0.02010186       2.71136754       0.00000000
