10
Lattice="16.290000149 0.0 0.0 0.0 16.290000149 0.0 0.0 0.0 29.1751946751" Properties=species:S:1:pos:R:3:initial_magmoms:R:1 pbc="T T T"
Si       1.34030863       1.36161595       1.36668282       0.00000000
Si      -1.35152756       1.35892810      -1.35991417       0.00000000
Si      -1.35779269      -1.35246097       1.36253994       0.00000000
Si       1.36813195      -1.35395965      -1.35194935       0.00000000
Si      -2.68217988       2.70845687       0.03086736       0.00000000
Si       2.70910847       0.00490329       2.69456263       0.00000000
Si       2.70736544       2.70583418       0.02269830       0.00000000
Si       0.00747711      -2.70806591      -2.70538663       0.00000000
Si      -2.71093295      -2.70479162       0.00142958       0.00000000
Si       2.71754669      -2.71453304       0.01277874       0.00000000
