10
Lattice="16.290000149 0.0 0.0 0.0 16.290000149 0.0 0.0 0.0 29.1751946751" Properties=species:S:1:pos:R:3:initial_magmoms:R:1 pbc="T T T"
Si      -1.46439608       1.21129183       1.33882051       0.00000000
Si       1.17271059       1.53191161      -1.31688076       0.00000000
Si      -0.22044606      -1.84902905      -1.43894978       0.00000000
Si       1.43911726      -1.18576540       1.44463894       0.00000000
H       -2.92332849      -1.24563115      -1.41455931       0.00000000
Si       2.08447819      -2.02968515      -2.03844168       0.00000000
Si      -2.61640860      -0.42388209       2.52505475       0.00000000
Si       2.53147580       0.18285525      -2.64464387       0.00000000
Si       3.15883628      -1.94557988       0.06401038       0.00000000
Si      -0.00606314       2.59509476       2.68776481       0.00000000
