10
Lattice="16.290000149 0.0 0.0 0.0 16.290000149 0.0 0.0 0.0 29.1751946751" Properties=species:S:1:pos:R:3:initial_magmoms:R:1 pbc="T T T"
H        1.99832690      -0.08592975      -1.08333333       0.00000000
Si       1.02405457      -1.33556824       1.61630579       0.00000000
Si       0.76119913       1.89361478      -1.27378900       0.00000000
Si      -0.77747284      -2.03449070      -1.02722943       0.00000000
Si      -1.07906590       1.11565324       1.85049507       0.00000000
H       -1.16514226       1.26053650      -2.50448624       0.00000000
H       -3.02171358       0.08211789      -1.30357687       0.00000000
H       -1.83536174       1.63235575      -2.33804175       0.00000000
H        2.33049629      -0.78454270       2.52572578       0.00000000
Si      -2.64316655       2.39800205       0.72760018       0.00000000
