10
Lattice="16.290000149 0.0 0.0 0.0 16.290000149 0.0 0.0 0.0 29.1751946751" Properties=species:S:1:pos:R:3:initial_magmoms:R:1 pbc="T T T"
Si       1.35106003       1.38471517       1.32542909       0.00000000
Si      -1.34181220       1.35814618      -1.36213149       0.00000000
Si       1.38596950      -1.35223291      -1.33409413       0.00000000
Si      -1.35064627      -1.36730116       1.36151881       0.00000000
Si       2.66181860      -0.04206078       2.62331680       0.00000000
Si      -2.66985813       2.70731657       0.03264704       0.00000000
Si       0.03652218      -2.71326242      -2.68414709       0.00000000
Si      -2.69495246       0.00581553      -2.72324185       0.00000000
Si      -2.69469182      -2.72763020       0.00793565       0.00000000
Si       0.01598049       2.71060715      -2.72467143       0.00000000
