10
Lattice="16.290000149 0.0 0.0 0.0 16.290000149 0.0 0.0 0.0 29.1751946751" Properties=species:S:1:pos:R:3:initial_magmoms:R:1 pbc="T T T"
Si       0.11627802      -2.30611016      -0.22823755       0.00000000
Si      -1.74744461      -0.32248010       1.49263213       0.00000000
Si      -0.98249878       0.85739646      -1.98893137       0.00000000
Si       1.83365129       1.19096191       1.00598989       0.00000000
H       -0.42489207       2.65520486       1.48787658       0.00000000
Si      -2.50390334       2.17564355      -0.79514076       0.00000000
Si       1.71664022      -2.22840686      -2.02347480       0.00000000
Si      -1.06375330       3.50709042       0.41364591       0.00000000
Si       0.40379652      -3.20152260       2.01676451       0.00000000
Si      -3.66565728       0.73635199       0.71120372       0.00000000
