10
Lattice="16.290000149 0.0 0.0 0.0 16.290000149 0.0 0.0 0.0 29.1751946751" Properties=species:S:1:pos:R:3:initial_magmoms:R:1 pbc="T T T"
Si       1.37106089       1.36870210       1.32434961       0.00000000
Si       1.37995523      -1.34805127      -1.34042514       0.00000000
Si      -1.32561505       1.38411244      -1.35895139       0.00000000
Si      -1.35115777      -1.35190060       1.37304301       0.00000000
Si      -2.68405445      -2.70580160      -0.01006544       0.00000000
Si      -2.69456150       0.03567510      -2.69683829       0.00000000
Si       0.00703728       2.72070695       2.67346896       0.00000000
Si       2.69788466       0.00858483       2.70057272       0.00000000
Si       2.70386309       0.03627783      -2.70200230       0.00000000
Si      -2.69091254       2.73123029      -0.00863586       0.00000000
