10
Lattice="16.290000149 0.0 0.0 0.0 16.290000149 0.0 0.0 0.0 29.1751946751" Properties=species:S:1:pos:R:3:initial_magmoms:R:1 pbc="T T T"
Si       1.32134394      -1.33591033      -1.40583593       0.00000000
Si       1.39134532       1.37731951       1.31113325       0.00000000
Si      -1.34220792       1.36638892      -1.37269291       0.00000000
Si      -1.35607071      -1.34578207       1.39437008       0.00000000
Si      -0.01252037       2.69630453       2.62352103       0.00000000
Si       2.64582846      -2.69470811      -0.03512693       0.00000000
Si      -2.69927897      -2.67571397      -0.01461677       0.00000000
Si      -2.72407235       2.71471223      -0.03970744       0.00000000
Si       2.67199020       0.03139083      -2.76735474       0.00000000
Si      -2.70875975       0.02682963      -2.74398541       0.00000000
