10
Lattice="16.28999089631971 0.0 0.0 0.0 16.28999089631971 0.0 0.0 0.0 34.51007289658418" Properties=species:S:1:pos:R:3:initial_magmoms:R:1 pbc="T T T"
Si       1.40346984       1.85826546      -0.02029193       0.00000000
Si      -1.64657921       0.70369542       1.51647698       0.00000000
Si       1.49073537      -1.43933553       1.11557324       0.00000000
Si      -1.21936237      -0.82069020      -1.85553864       0.00000000
Si       0.19859791      -1.70564445       3.02097896       0.00000000
Si      -3.35663825      -0.81422307       1.10063037       0.00000000
Si      -0.69306945       0.37196586       3.62759736       0.00000000
Si       0.37435560       3.60028548      -1.19259977       0.00000000
Si      -0.19447654      -2.74673835      -2.68347026       0.00000000
Si      -3.27750143      -1.71797598      -1.05231624       0.00000000
