10
Lattice="16.28999089631971 0.0 0.0 0.0 16.28999089631971 0.0 0.0 0.0 34.51007289658418" Properties=species:S:1:pos:R:3:initial_magmoms:R:1 pbc="T T T"
Si      -2.22473507       0.55641753      -0.80750165       0.00000000
Si       1.22254821      -1.05148692      -1.94598959       0.00000000
Si       2.02230576       1.72154349      -0.25830804       0.00000000
Si       0.78112179      -0.27298782       2.72336392       0.00000000
Si      -0.90495674      -2.63233368       0.87296729       0.00000000
Si       2.82563082      -1.80620262      -0.37119055       0.00000000
Si      -3.52767185       1.04026311       1.13179298       0.00000000
Si       3.87358281       0.21712941      -0.24826560       0.00000000
Si      -1.78460208      -3.22519194      -1.23994761       0.00000000
Si      -3.20789915      -1.41147963      -1.71466844       0.00000000
