10
Lattice="16.28999089631971 0.0 0.0 0.0 16.28999089631971 0.0 0.0 0.0 34.51007289658418" Properties=species:S:1:pos:R:3:initial_magmoms:R:1 pbc="T T T"
Si      -0.68183424       1.84445480       1.22866281       0.00000000
Si       0.67683321      -1.75689672       1.37022321       0.00000000
Si      -2.13332211      -0.87838775      -0.81136678       0.00000000
Si       2.54925468      -0.11629431      -0.39386368       0.00000000
Si       2.51067996      -2.48986527       0.07885556       0.00000000
Si      -2.29645017       0.54508295      -2.70317552       0.00000000
Si       1.36875096       2.35956089       2.33850738       0.00000000
Si       1.35088083       2.37003536      -2.53680237       0.00000000
Si       3.32022780       1.68854321       1.07046855       0.00000000
Si      -1.55890413       3.54778607      -0.43713934       0.00000000
