10
Lattice="16.28999089631971 0.0 0.0 0.0 16.28999089631971 0.0 0.0 0.0 34.51007289658418" Properties=species:S:1:pos:R:3:initial_magmoms:R:1 pbc="T T T"
Si       1.81628613      -1.04164776      -1.12540862       0.00000000
Si      -1.03228101       1.71027081      -1.30006419       0.00000000
Si      -1.36340784      -2.08648836       0.09842278       0.00000000
Si       0.87908985       1.40080968       2.04127195       0.00000000
Si       1.14390009      -2.23818084       1.88683929       0.00000000
Si       0.25526430      -0.55164456       3.25292129       0.00000000
Si      -2.27770038       0.27029997      -2.63301650       0.00000000
Si       0.56643588      -2.39886540      -2.63788243       0.00000000
Si      -3.37971888      -1.29438711      -1.11943837       0.00000000
Si      -2.79477756       2.78585064      -0.00945577       0.00000000
