10
Lattice="16.28999089631971 0.0 0.0 0.0 16.28999089631971 0.0 0.0 0.0 34.51007289658418" Properties=species:S:1:pos:R:3:initial_magmoms:R:1 pbc="T T T"
Si      -2.25285813       0.57560715      -0.01728956       0.00000000
Si       0.58881834       0.09044208       2.27024641       0.00000000
Si       0.85328649       1.73542257      -1.37912681       0.00000000
Si       0.09506844      -2.31899553      -0.74093168       0.00000000
Si      -2.49119712       0.66885111      -2.33319282       0.00000000
Si       2.89805616      -0.22757130       2.07605813       0.00000000
Si      -3.14796105      -1.23953868       1.17427491       0.00000000
Si      -0.48946563       1.52392950      -3.30761979       0.00000000
Si       0.72391131      -3.39895737       1.25975641       0.00000000
Si       0.27059319      -2.05420158       3.19477178       0.00000000
