10
Lattice="16.28999089631971 0.0 0.0 0.0 16.28999089631971 0.0 0.0 0.0 34.51007289658418" Properties=species:S:1:pos:R:3:initial_magmoms:R:1 pbc="T T T"
Si       1.26293112      -1.38398211      -1.50484708       0.00000000
Si      -1.59003432      -1.31507541       1.30755288       0.00000000
Si      -1.42716690       1.34469063      -1.48917950       0.00000000
Si       1.97908839       0.80358570       1.25930777       0.00000000
Si       2.60152929       2.66014071      -0.11050132       0.00000000
Si       3.47498280      -1.08952407       1.07830234       0.00000000
Si       2.55088368      -2.83654512      -0.12620341       0.00000000
Si       2.63163321      -0.01796787      -2.87244752       0.00000000
Si      -0.08602749       2.69910639      -2.87734796       0.00000000
Si      -2.83545369      -2.75504625      -0.02539943       0.00000000
