10
Lattice="16.28999089631971 0.0 0.0 0.0 16.28999089631971 0.0 0.0 0.0 34.51007289658418" Properties=species:S:1:pos:R:3:initial_magmoms:R:1 pbc="T T T"
Si       0.62244090       1.85655501      -1.36980909       0.00000000
Si       1.49589441      -1.89310977      -0.18100543       0.00000000
Si      -1.97908839      -0.80358570      -1.25930777       0.00000000
Si       1.09514412       0.71104221       2.55747391       0.00000000
Si       2.02623165       0.54540549      -2.75873677       0.00000000
Si      -0.71615727      -2.18756781      -2.76415485       0.00000000
Si       3.32166132      -0.91083906      -1.30551679       0.00000000
Si       1.13371884       3.08461317       2.08475467       0.00000000
Si       0.57179529      -3.64013082      -1.38551118       0.00000000
Si       1.44596556       3.70924019      -0.15408756       0.00000000
