10
Lattice="16.28999089631971 0.0 0.0 0.0 16.28999089631971 0.0 0.0 0.0 34.51007289658418" Properties=species:S:1:pos:R:3:initial_magmoms:R:1 pbc="T T T"
Si      -0.95578757       1.57637678      -1.50581336       0.00000000
Si       0.88359403      -1.97199965      -1.02243050       0.00000000
Si      -1.37751402      -0.51598316       1.91020262       0.00000000
Si       2.05818448       1.02803747       0.77823709       0.00000000
Si      -0.18716233       3.62003873      -0.59681753       0.00000000
Si       3.59350069      -0.67194362       1.28802017       0.00000000
Si       3.17973470       2.02291826      -0.99768676       0.00000000
Si       2.95485124      -2.60141267       0.05569929       0.00000000
Si       2.06364163      -1.54176446      -3.02059935       0.00000000
Si      -3.30102093       1.44325490      -1.72281282       0.00000000
