10
Lattice="16.28999089631971 0.0 0.0 0.0 16.28999089631971 0.0 0.0 0.0 34.51007289658418" Properties=species:S:1:pos:R:3:initial_magmoms:R:1 pbc="T T T"
Si       2.28276657       0.48444831      -0.20833743       0.00000000
Si      -0.54239184       0.29178648       2.31293540       0.00000000
Si      -0.11935683      -2.10812148      -1.19422174       0.00000000
Si      -2.79741654       0.58438746      -1.17109998       0.00000000
Si       1.48282983       1.95501177      -1.90871869       0.00000000
Si      -1.59034383      -1.73154555       2.19001045       0.00000000
Si       0.06602337       3.20796594      -0.44569784       0.00000000
Si      -2.15876709       2.51385651       0.06122090       0.00000000
Si      -3.19342644      -0.97682985       0.61521141       0.00000000
Si      -0.53511021      -3.28404771       0.81298875       0.00000000
