10
Lattice="16.28999089631971 0.0 0.0 0.0 16.28999089631971 0.0 0.0 0.0 34.51007289658418" Properties=species:S:1:pos:R:3:initial_magmoms:R:1 pbc="T T T"
Si      -1.35871632       1.35560493       1.36270001       0.00000000
Si       1.35786924      -1.36016761       1.36325217       0.00000000
Si       1.34998488       1.38658851      -1.36420465       0.00000000
Si      -1.35713619      -1.38342059      -1.37594498       0.00000000
Si       2.70202230      -0.01776913      -2.61717982       0.00000000
Si       2.71270854       2.71265967       0.00493494       0.00000000
Si      -2.71277370       2.71300176       0.00162197       0.00000000
Si       2.71339272      -2.71613663       0.00900713       0.00000000
Si      -2.71060713      -2.72128427       0.00700555       0.00000000
Si       2.71407690      -0.00051151       2.71967134       0.00000000
