10
Lattice="16.28999089631971 0.0 0.0 0.0 16.28999089631971 0.0 0.0 0.0 34.51007289658418" Properties=species:S:1:pos:R:3:initial_magmoms:R:1 pbc="T T T"
Si       1.35203742      -1.40435764      -1.25297517       0.00000000
Si       1.36272366       1.32607116       1.36913959       0.00000000
Si      -1.34998488      -1.38658851       1.36420465       0.00000000
Si      -1.35513252       1.46891817      -1.45811351       0.00000000
Si      -0.48707100      -2.08752278      -2.65463086       0.00000000
Si      -2.40705927      -0.41106186      -2.59195329       0.00000000
Si      -2.72194497       2.68527618       0.01318631       0.00000000
Si       0.00811242       2.68424991       2.72614544       0.00000000
Si       2.72008791       2.69469180      -0.02399142       0.00000000
Si      -2.70870120      -0.03098358       2.72690466       0.00000000
