10
Lattice="16.28999089631971 0.0 0.0 0.0 16.28999089631971 0.0 0.0 0.0 34.51007289658418" Properties=species:S:1:pos:R:3:initial_magmoms:R:1 pbc="T T T"
Si       1.08991503      -1.99365165      -0.34178795       0.00000000
Si      -2.00409354      -0.13738986      -1.25758227       0.00000000
Si      -1.16211231      -0.15892524       2.10680662       0.00000000
Si       1.57986936       1.78150698      -0.43030634       0.00000000
Si      -1.17806022       1.54877175      -2.62111052       0.00000000
Si      -0.15988635       3.19055940      -1.20619674       0.00000000
Si       3.03213915      -1.47821976       1.07871646       0.00000000
Si      -0.48917241      -3.62606603       0.32629292       0.00000000
Si      -1.76990850      -2.52275085       2.17016715       0.00000000
Si      -3.87328959       0.38872827       0.12420182       0.00000000
