10
Lattice="16.28999089631971 0.0 0.0 0.0 16.28999089631971 0.0 0.0 0.0 34.51007289658418" Properties=species:S:1:pos:R:3:initial_magmoms:R:1 pbc="T T T"
Si       1.36125756       1.34739477       1.37410905       0.00000000
Si      -1.35360126      -1.36694277       1.37083059       0.00000000
Si       1.41103980      -1.18029195      -1.49568120       0.00000000
Si      -1.41898932       1.34587980      -1.37669040       0.00000000
Si       2.73512358       2.68250688       0.00556648       0.00000000
Si      -2.61996957      -0.26037936      -2.79324138       0.00000000
Si       2.71647153      -2.71492398      -0.02040237       0.00000000
Si       0.00568521       2.70503595       2.72959645       0.00000000
Si      -2.73294072       2.70174537       0.01216481       0.00000000
Si      -2.71290402      -0.00850338       2.73014861       0.00000000
