10
Lattice="16.28999089631971 0.0 0.0 0.0 16.28999089631971 0.0 0.0 0.0 34.51007289658418" Properties=species:S:1:pos:R:3:initial_magmoms:R:1 pbc="T T T"
Si       1.75172886       1.49644827       0.29592404       0.00000000
Si       0.80562195      -2.06720100      -0.92114338       0.00000000
Si      -1.24610355       1.59510051      -1.30648307       0.00000000
Si      -0.41291892      -0.78214806       2.24315599       0.00000000
Si       2.93479011       0.92989836      -1.65817542       0.00000000
Si      -0.67093623      -3.59627814       0.15677935       0.00000000
Si      -2.15686116       3.01988907       0.44310958       0.00000000
Si       2.79199197       0.93170655       2.30468749       0.00000000
Si      -3.14704881       0.47039004      -2.17927781       0.00000000
Si       0.07915311      -3.08726451       2.32929318       0.00000000
