10
Lattice="16.28999089631971 0.0 0.0 0.0 16.28999089631971 0.0 0.0 0.0 34.51007289658418" Properties=species:S:1:pos:R:3:initial_magmoms:R:1 pbc="T T T"
Si      -0.04434138       0.28678545      -2.34592705       0.00000000
Si      -0.13567941      -2.36509623       0.17172222       0.00000000
Si      -1.40362785       1.35162758       1.40925412       0.00000000
Si       2.31129036       0.17459622       0.69113362       0.00000000
Si       0.71218251       2.55421403      -2.01466467       0.00000000
Si       1.92034665      -1.00755279      -2.75911638       0.00000000
Si       1.04738184      -2.93164614      -1.78237724       0.00000000
Si      -2.84640057      -0.28413018       2.32611825       0.00000000
Si       0.90458370      -2.92983795       2.18048566       0.00000000
Si       2.43077751      -1.19695662       2.68809461       0.00000000
