10
Lattice="16.28999089631971 0.0 0.0 0.0 16.28999089631971 0.0 0.0 0.0 34.51007289658418" Properties=species:S:1:pos:R:3:initial_magmoms:R:1 pbc="T T T"
Si       1.35891180       1.34527707       1.38854117       0.00000000
Si      -1.35736425      -1.36862064       1.39313101       0.00000000
Si       1.35428544      -1.42579854      -1.42953225       0.00000000
Si      -1.30543173       1.53463203      -1.47527883       0.00000000
Si      -2.72008791      -2.69469180       0.02399142       0.00000000
Si       2.72063759       2.70019782      -0.00090416       0.00000000
Si      -2.71647153       2.71492398       0.02040237       0.00000000
Si       2.70526401      -2.72728809       0.02802910       0.00000000
Si       0.00014661       2.70510111       2.75055098       0.00000000
Si      -2.71197549      -0.01044189       2.75013685       0.00000000
