10
Lattice="16.28999089631971 0.0 0.0 0.0 16.28999089631971 0.0 0.0 0.0 34.51007289658418" Properties=species:S:1:pos:R:3:initial_magmoms:R:1 pbc="T T T"
Si       1.15510828      -0.82686411      -1.94740450       0.00000000
Si      -2.11071159       0.79821000       1.06529204       0.00000000
Si       1.34052595      -1.28158317       1.78030664       0.00000000
Si       1.18284852       2.25375408      -0.51085289       0.00000000
Si       2.58299846      -2.05889310      -0.31997757       0.00000000
Si      -0.92636343      -0.37408356      -3.22265594       0.00000000
Si       0.75978207       0.52929468       3.30196013       0.00000000
Si       1.77954796       2.31124149       2.01518232       0.00000000
Si      -2.91214701       2.32298658      -0.64910032       0.00000000
Si      -1.49102370       1.01775033       3.38053961       0.00000000
