10
Lattice="16.28999089631971 0.0 0.0 0.0 16.28999089631971 0.0 0.0 0.0 34.51007289658418" Properties=species:S:1:pos:R:3:initial_magmoms:R:1 pbc="T T T"
Si       1.94059512       0.69657669       1.06922619       0.00000000
Si      -0.78519429       2.21568435      -0.46422976       0.00000000
Si       0.67772916      -0.94271859      -2.10528817       0.00000000
Si      -0.85009365      -1.78173504       1.42381738       0.00000000
Si      -1.63181817      -3.05478225      -0.49021586       0.00000000
Si       3.45579711      -0.76937670       0.09749101       0.00000000
Si       0.43649055      -3.26508615      -1.77437090       0.00000000
Si       3.00413568      -0.72778833      -2.24791838       0.00000000
Si      -2.52077976       2.29050432      -1.97521964       0.00000000
Si      -3.24118872      -1.69666866      -1.55064197       0.00000000
