10
Lattice="16.28999089631971 0.0 0.0 0.0 16.28999089631971 0.0 0.0 0.0 34.51007289658418" Properties=species:S:1:pos:R:3:initial_magmoms:R:1 pbc="T T T"
Si      -1.37217186      -1.33604064       1.35155325       0.00000000
Si      -1.35505107       1.35757602      -1.36049136       0.00000000
Si       1.36129014      -1.35524655      -1.35973214       0.00000000
Si       1.36620972       1.38021912       1.37336363       0.00000000
Si      -0.05550003      -2.69439858       2.67781060       0.00000000
Si      -2.70705591       2.71591767       0.00189806       0.00000000
Si      -2.71485882      -2.71109583      -0.00276081       0.00000000
Si      -2.71178001      -0.00001629      -2.71666897       0.00000000
Si       0.00296478      -2.71430496      -2.71687603       0.00000000
Si       2.71405783       2.71738377      -0.00162197       0.00000000
