10
Lattice="16.28999089631971 0.0 0.0 0.0 16.28999089631971 0.0 0.0 0.0 34.51007289658418" Properties=species:S:1:pos:R:3:initial_magmoms:R:1 pbc="T T T"
Si      -1.35757602      -1.35610992      -1.35638466       0.00000000
Si      -1.35703845       1.35707711       1.35766154       0.00000000
Si       1.35795069       1.35697329      -1.35686780       0.00000000
Si       1.35713314      -1.35764118       1.35731644       0.00000000
Si      -2.71575477      -0.00029322      -2.71080225       0.00000000
Si       0.00057015       2.71388046       2.71373561       0.00000000
Si      -2.71461447      -2.71507059       0.00006902       0.00000000
Si       2.71440500       0.00037467       2.71528856       0.00000000
Si       2.71356769       0.00068418      -2.71663446       0.00000000
Si      -2.71564074       0.00035838       2.71470189       0.00000000
