10
Lattice="16.28999089631971 0.0 0.0 0.0 16.28999089631971 0.0 0.0 0.0 34.51007289658418" Properties=species:S:1:pos:R:3:initial_magmoms:R:1 pbc="T T T"
Si       2.26980136       0.61761906       0.40873753       0.00000000
Si      -0.39375211      -1.90788480       1.38896219       0.00000000
Si      -0.58074388       1.81087785       1.52165349       0.00000000
Si       1.24247251      -0.77730993      -2.10028421       0.00000000
Si      -1.34052595       1.28158317      -1.78030664       0.00000000
Si       0.57843509      -3.51430686      -0.09642120       0.00000000
Si       0.43902202       3.59282466       0.23487569       0.00000000
Si      -0.18541767       0.45471906      -3.72771114       0.00000000
Si       3.13059754      -1.09112049       1.77902976       0.00000000
Si      -2.72015863      -2.12281506       1.53159240       0.00000000
