10
Lattice="16.28999089631971 0.0 0.0 0.0 16.28999089631971 0.0 0.0 0.0 34.51007289658418" Properties=species:S:1:pos:R:3:initial_magmoms:R:1 pbc="T T T"
Si      -1.51520199       1.46595339       0.97173518       0.00000000
Si       0.12548676      -2.22856974       0.68116020       0.00000000
Si       2.25160706       0.52488009       0.34413464       0.00000000
Si      -0.45166143       0.04158837      -2.34540940       0.00000000
Si       2.39388392      -1.96693605       0.12292495       0.00000000
Si      -0.37280479       3.36828330       0.12437437       0.00000000
Si      -3.45579711       0.76937670      -0.09749101       0.00000000
Si      -2.77806795      -0.17334189      -2.20277918       0.00000000
Si       1.88583140       2.98058130       0.55775211       0.00000000
Si       2.35425035       0.05481585       2.82151063       0.00000000
