10
Lattice="16.28999089631971 0.0 0.0 0.0 16.28999089631971 0.0 0.0 0.0 34.51007289658418" Properties=species:S:1:pos:R:3:initial_magmoms:R:1 pbc="T T T"
Si      -1.35203253      -1.33981992       1.35534591       0.00000000
Si       1.33255458      -1.36721970      -1.35834484       0.00000000
Si       1.36401057       1.36839258       1.35472473       0.00000000
Si      -1.22435151       1.47312099      -1.37831583       0.00000000
Si       2.14452963       0.52743762      -2.50745464       0.00000000
Si       0.48325914       2.43981846      -2.75747857       0.00000000
Si      -2.70568263      -2.70436806      -0.03651513       0.00000000
Si       2.72846097      -2.68340283       0.00650860       0.00000000
Si       0.00575037      -2.69887833       2.71559570       0.00000000
Si      -2.71019234       0.01433520       2.71511256       0.00000000
