10
Lattice="16.28999089631971 0.0 0.0 0.0 16.28999089631971 0.0 0.0 0.0 34.51007289658418" Properties=species:S:1:pos:R:3:initial_magmoms:R:1 pbc="T T T"
Si       0.80523099      -1.92451689      -1.28211894       0.00000000
Si      -2.01631104       0.79210125      -1.21786115       0.00000000
Si       1.36340784       2.08648836      -0.09842278       0.00000000
Si       0.64195632      -1.69290567       1.86865247       0.00000000
Si       2.50730793      -0.15169248       1.78841651       0.00000000
Si       1.92984372      -0.31237704      -2.73630521       0.00000000
Si      -3.14124143       1.27560474       1.05310997       0.00000000
Si       3.17969397       1.04484060      -1.22383140       0.00000000
Si      -3.16898167      -1.80501345      -0.38344163       0.00000000
Si      -1.74109149      -3.03704244       1.24398529       0.00000000
