10
Lattice="16.28999089631971 0.0 0.0 0.0 16.28999089631971 0.0 0.0 0.0 34.51007289658418" Properties=species:S:1:pos:R:3:initial_magmoms:R:1 pbc="T T T"
Si      -1.35630235      -1.35804843       1.35752350       0.00000000
Si      -1.35713314       1.35764118      -1.35731644       0.00000000
Si       1.35727186       1.35801585       1.35797213       0.00000000
Si       1.35822808      -1.35811359      -1.35721291       0.00000000
Si      -2.71470916       0.00153126      -2.71370110       0.00000000
Si       0.00081755       2.71461447      -2.71418424       0.00000000
Si      -2.71417159       2.71471829       0.00034510       0.00000000
Si      -0.00330660      -2.71336014       2.71553013       0.00000000
Si      -2.71430191      -2.71482624       0.00037961       0.00000000
Si       2.71389166       0.00017919      -2.71563366       0.00000000
