10
Lattice="16.28999089631971 0.0 0.0 0.0 16.28999089631971 0.0 0.0 0.0 34.376317263855086" Properties=species:S:1:pos:R:3:initial_magmoms:R:1 pbc="T T T"
Si       1.68577065       0.94009753      -1.35371061       0.00000000
Si      -1.03612545      -1.63931713      -1.35044485       0.00000000
Si       1.31689989      -1.22590951       1.54455974       0.00000000
Si      -1.38416130       1.46908270       1.50466944       0.00000000
Si       2.56298715      -2.57711614       0.12299853       0.00000000
Si      -2.65940766      -2.53518568       0.12120752       0.00000000
Si       0.70107273      -3.42636271      -1.26464152       0.00000000
Si       3.43200978      -0.91416385      -1.48822521       0.00000000
Si       2.71551042       2.77568731       0.05470306       0.00000000
Si      -0.02933829      -2.58886123       2.90164812       0.00000000
