10
Lattice="16.28999089631971 0.0 0.0 0.0 16.28999089631971 0.0 0.0 0.0 34.376317263855086" Properties=species:S:1:pos:R:3:initial_magmoms:R:1 pbc="T T T"
Si       1.35637056       1.35754344       1.35604334       0.00000000
Si      -1.35775521       1.35744570      -1.35704026       0.00000000
Si       1.35746199      -1.35769005      -1.35745277       0.00000000
Si      -1.35943308      -1.35851921       1.35762466       0.00000000
Si      -2.71410948      -0.00021177      -2.71490555       0.00000000
Si      -0.00068418      -2.71543156      -2.71366800       0.00000000
Si       2.71521720      -0.00236205      -2.71411489       0.00000000
Si       2.71477737       2.71484253       0.00079066       0.00000000
Si       2.71482624      -2.71508796       0.00044689       0.00000000
Si      -2.71524978      -2.71546805       0.00020626       0.00000000
