10
Lattice="16.28999089631971 0.0 0.0 0.0 16.28999089631971 0.0 0.0 0.0 34.376317263855086" Properties=species:S:1:pos:R:3:initial_magmoms:R:1 pbc="T T T"
Si      -2.30993829       0.36004158      -0.00501895       0.00000000
Si       0.90337824       2.14553961      -0.55919987       0.00000000
Si       0.59487822      -0.51892284       2.27897923       0.00000000
Si       0.30882582      -2.06678465      -1.29777545       0.00000000
Si       3.15729522       1.54432458      -0.21969917       0.00000000
Si      -3.01369887      -1.04673839       1.79258844       0.00000000
Si       1.49242464      -3.33453761       0.34551656       0.00000000
Si       0.35481249      -2.87504558       2.35797605       0.00000000
Si      -0.61838469       0.95962761       3.67665232       0.00000000
Si       3.28882068       0.03464883      -2.00991564       0.00000000
