10
Lattice="16.28999089631971 0.0 0.0 0.0 16.28999089631971 0.0 0.0 0.0 34.376317263855086" Properties=species:S:1:pos:R:3:initial_magmoms:R:1 pbc="T T T"
Si      -0.86042151      -1.85347946      -1.21097521       0.00000000
Si      -1.77012027      -0.45561501       1.52620621       0.00000000
Si       0.22625181       2.33155512      -0.51808577       0.00000000
Si      -2.11162383      -2.69839682       0.94978380       0.00000000
Si      -2.24344251      -0.56849982      -2.80600284       0.00000000
Si      -0.81213795       0.17423784       3.58472999       0.00000000
Si       1.80662616      -2.25258839       2.29197348       0.00000000
Si       2.29509810       2.56958460      -1.67863089       0.00000000
Si       1.49780034      -0.18580374       3.58974894       0.00000000
Si       0.00697212      -3.73856219       1.45552846       0.00000000
