10
Lattice="16.28999089631971 0.0 0.0 0.0 16.28999089631971 0.0 0.0 0.0 34.376317263855086" Properties=species:S:1:pos:R:3:initial_magmoms:R:1 pbc="T T T"
Si      -0.66108078      -1.08863952      -2.00145906       0.00000000
Si       1.66498461       1.70194662      -0.18291649       0.00000000
Si       0.06869493      -1.98828314       1.33094862       0.00000000
Si      -2.37003210       0.91375497       1.06133501       0.00000000
Si       1.22235273      -2.46017186      -2.41799713       0.00000000
Si       1.24160751      -3.52180745      -0.24775026       0.00000000
Si       1.54127835       2.40567462      -2.45460793       0.00000000
Si       3.58296921       0.73798587       1.04428435       0.00000000
Si      -2.53330677      -2.55196601      -1.32603280       0.00000000
Si       0.95381208       3.60502587       1.15356672       0.00000000
