10
Lattice="16.28999089631971 0.0 0.0 0.0 16.28999089631971 0.0 0.0 0.0 34.376317263855086" Properties=species:S:1:pos:R:3:initial_magmoms:R:1 pbc="T T T"
Si       1.70906535       1.02750315      -1.29767233       0.00000000
Si      -1.02670983      -1.78145389      -1.23070722       0.00000000
Si       1.38302100      -1.28497963       1.59502764       0.00000000
Si      -1.95564708       1.73834988       0.08343137       0.00000000
Si      -2.27555010      -0.27375508      -2.70930221       0.00000000
Si       2.24344251       0.56849982       2.80600284       0.00000000
Si       0.44087256       2.46903783      -2.69867992       0.00000000
Si       0.43513848      -2.96471062      -2.71356487       0.00000000
Si      -3.71572361       0.94971840      -1.29079706       0.00000000
Si      -1.14569199       3.67764180      -1.25989273       0.00000000
