10
Lattice="16.28999089631971 0.0 0.0 0.0 16.28999089631971 0.0 0.0 0.0 34.376317263855086" Properties=species:S:1:pos:R:3:initial_magmoms:R:1 pbc="T T T"
Si      -0.85678951      -2.06171846       0.73252535       0.00000000
Si      -1.40524123       1.79370819      -0.67081983       0.00000000
Si       1.37647894       0.69111954       1.86006919       0.00000000
Si       1.11836389       1.46139219      -2.67379145       0.00000000
Si      -2.03975302      -0.74408648      -2.60050110       0.00000000
Si      -1.48121779      -2.82826070      -1.43479953       0.00000000
Si      -2.73183367       2.05060149       1.24301395       0.00000000
Si      -3.42907825       0.62262009      -1.29151896       0.00000000
Si       0.99277124      -3.19776677       1.80451703       0.00000000
Si       3.54733321      -0.16407288       1.57498623       0.00000000
