10
Lattice="16.28999089631971 0.0 0.0 0.0 16.28999089631971 0.0 0.0 0.0 34.376317263855086" Properties=species:S:1:pos:R:3:initial_magmoms:R:1 pbc="T T T"
Si      -1.34552142      -1.35816246      -1.39303228       0.00000000
Si       1.36596537       1.36068741      -1.39220725       0.00000000
Si       1.27697310      -1.48315563       1.46223185       0.00000000
Si      -1.52981019       1.34141634       1.46659764       0.00000000
Si       2.69472438      -2.70656721      -0.04609867       0.00000000
Si      -2.68615584      -2.72236851      -0.02873862       0.00000000
Si       2.70791928       2.71166598      -0.00336888       0.00000000
Si      -2.71360449       2.71622718      -0.02413219       0.00000000
Si      -2.70568755      -0.00144981      -2.75216950       0.00000000
Si       0.00816129       2.71249677      -2.75316641       0.00000000
