10
Lattice="16.28999089631971 0.0 0.0 0.0 16.28999089631971 0.0 0.0 0.0 34.376317263855086" Properties=species:S:1:pos:R:3:initial_magmoms:R:1 pbc="T T T"
Si       2.31161616       0.49396167       0.13863977       0.00000000
Si      -1.10772719       2.09197809      -0.13537401       0.00000000
Si      -1.06286453      -0.61721181       2.07206806       0.00000000
Si      -0.15247277      -1.53093420      -1.97258294       0.00000000
Si      -1.62514646       0.34498962      -2.91384141       0.00000000
Si      -3.11586065       0.87809616      -1.10007714       0.00000000
Si       1.20363552      -3.28893797      -0.89756615       0.00000000
Si       0.18460480      -2.35989972       2.92308864       0.00000000
Si       2.54050695       2.09515464       1.85013443       0.00000000
Si      -3.26364353      -1.21505481       1.54222558       0.00000000
