10
Lattice="16.28999089631971 0.0 0.0 0.0 16.28999089631971 0.0 0.0 0.0 34.376317263855086" Properties=species:S:1:pos:R:3:initial_magmoms:R:1 pbc="T T T"
Si      -1.18379430       1.37481084      -1.49072983       0.00000000
Si       1.23198012       1.38021912       1.55326039       0.00000000
Si      -1.55817108      -1.28373345       1.46714766       0.00000000
Si       1.52981019      -1.34141634      -1.46659764       0.00000000
Si      -2.64564261       2.55806757      -0.00787218       0.00000000
Si      -2.46514941      -2.82939381      -0.02732919       0.00000000
Si      -2.53317645       0.01804932      -2.85753297       0.00000000
Si       1.52264259      -0.08562024       3.51549605       0.00000000
Si      -0.29173761      -1.72160865       3.47348817       0.00000000
Si       0.18428877      -2.69957880      -2.85962993       0.00000000
