10
Lattice="16.28999089631971 0.0 0.0 0.0 16.28999089631971 0.0 0.0 0.0 34.376317263855086" Properties=species:S:1:pos:R:3:initial_magmoms:R:1 pbc="T T T"
Si       1.46709369      -1.76129109      -0.47535598       0.00000000
Si      -1.93987836      -1.29117798       0.37339577       0.00000000
Si       0.65850696       1.18307754       1.98103952       0.00000000
Si       0.11021814       0.77051700      -2.31397434       0.00000000
Si       0.07972326      -2.84895810      -2.02823823       0.00000000
Si       3.38952546      -0.52303932      -0.92386404       0.00000000
Si      -0.83393397      -1.12124070      -3.34636447       0.00000000
Si       2.45159613       0.92725938      -2.57709082       0.00000000
Si      -1.22492655       2.55460987       2.39757759       0.00000000
Si      -1.51938459      -3.52092060      -0.39752795       0.00000000
