10
Lattice="16.28999089631971 0.0 0.0 0.0 16.28999089631971 0.0 0.0 0.0 34.376317263855086" Properties=species:S:1:pos:R:3:initial_magmoms:R:1 pbc="T T T"
Si      -1.35570267       1.35086943       1.35721214       0.00000000
Si       1.35247725       1.34826303      -1.36814725       0.00000000
Si       1.35708732      -1.36169379       1.35614647       0.00000000
Si      -1.36704051      -1.35673124      -1.35774154       0.00000000
Si       2.57867442      -0.09448526      -2.77999027       0.00000000
Si      -2.71280628       2.71088895      -0.00721903       0.00000000
Si       2.71673217       2.70767982      -0.00323138       0.00000000
Si       0.00166158       2.71046541       2.71408052       0.00000000
Si      -2.71345788      -0.00445857       2.71387426       0.00000000
Si       2.71598283      -0.00398942       2.71383988       0.00000000
