10
Lattice="16.28999089631971 0.0 0.0 0.0 16.28999089631971 0.0 0.0 0.0 34.376317263855086" Properties=species:S:1:pos:R:3:initial_magmoms:R:1 pbc="T T T"
Si       0.52598781      -1.73716790       1.47660116       0.00000000
Si       2.23827858       0.74384050      -0.32605955       0.00000000
Si      -1.11003318      -0.34754063      -2.10503496       0.00000000
Si      -0.86053554       1.79439726       1.46611637       0.00000000
Si       2.38335732       1.40332323       1.84356855       0.00000000
Si       0.45937800      -1.87201652      -3.11208974       0.00000000
Si       2.27080971      -2.89450724       0.40784086       0.00000000
Si      -1.36293543      -3.16099535       1.68272167       0.00000000
Si      -1.44795294       1.84139391      -3.07197256       0.00000000
Si       3.74182929      -1.06777922      -0.07401225       0.00000000
