10
Lattice="16.28999089631971 0.0 0.0 0.0 16.28999089631971 0.0 0.0 0.0 34.376317263855086" Properties=species:S:1:pos:R:3:initial_magmoms:R:1 pbc="T T T"
Si       1.35531171       1.34591238       1.39859094       0.00000000
Si      -1.36203948      -1.36695906       1.39357199       0.00000000
Si       1.38233682      -1.43298243      -1.44680719       0.00000000
Si      -1.30842909       1.45722195      -1.57292709       0.00000000
Si      -2.51713080      -0.14998203      -2.83552322       0.00000000
Si       2.70803331       2.68667712       0.03129278       0.00000000
Si      -2.71935486       2.70241326       0.01297363       0.00000000
Si       2.70324405      -2.72958498       0.03264377       0.00000000
Si      -2.71733490      -2.73958704       0.00315919       0.00000000
Si      -0.00441459       2.70433548       2.75704063       0.00000000
