10
Lattice="16.28999089631971 0.0 0.0 0.0 16.28999089631971 0.0 0.0 0.0 34.376317263855086" Properties=species:S:1:pos:R:3:initial_magmoms:R:1 pbc="T T T"
Si       1.10705211       1.37683895       1.50056975       0.00000000
Si       1.92056819      -0.83747609      -1.34916808       0.00000000
Si      -1.63264637      -1.34598473       1.34395116       0.00000000
Si      -0.85821977       1.51457089      -1.81476118       0.00000000
Si      -1.78960052      -0.59982128      -2.52989211       0.00000000
Si       2.44142465      -2.55947570       0.08659399       0.00000000
Si       0.28733442      -1.50222212      -3.21470311       0.00000000
Si       2.09156432       2.95565760       0.04517051       0.00000000
Si       2.46621803      -0.02385894       2.88598768       0.00000000
Si      -0.26764196       2.68367976       2.90003385       0.00000000
