10
Lattice="16.28999089631971 0.0 0.0 0.0 16.28999089631971 0.0 0.0 0.0 34.376317263855086" Properties=species:S:1:pos:R:3:initial_magmoms:R:1 pbc="T T T"
Si      -1.36104579       1.35239580      -1.35769341       0.00000000
Si       1.35423657      -1.36350558      -1.35566521       0.00000000
Si       1.36467846       1.35071793       1.36254047       0.00000000
Si      -1.36875096      -1.36493910       1.35697151       0.00000000
Si      -0.06129927       2.70790299       2.62954911       0.00000000
Si       2.71318095       2.70822879       0.00154694       0.00000000
Si      -0.00177561       2.71085148      -2.71408052       0.00000000
Si       2.71265967      -0.00428427      -2.71435553       0.00000000
Si      -2.71484253       2.71492398       0.00085941       0.00000000
Si       2.71163340      -2.71814940       0.00278448       0.00000000
