10
Lattice="16.28999089631971 0.0 0.0 0.0 16.28999089631971 0.0 0.0 0.0 34.376317263855086" Properties=species:S:1:pos:R:3:initial_magmoms:R:1 pbc="T T T"
Si       1.32447474       1.36132272       1.34858368       0.00000000
Si      -1.36057338       1.35233064      -1.35913722       0.00000000
Si       1.35379674      -1.36252818      -1.35855282       0.00000000
Si      -1.38302100      -1.35770634       1.37226898       0.00000000
Si       2.65354326      -0.00702099       2.62868970       0.00000000
Si       2.71406061       2.71104696       0.00178757       0.00000000
Si      -2.71577106       2.70972747       0.00165006       0.00000000
Si      -0.00234576       2.71065600      -2.71504305       0.00000000
Si       2.71306692      -0.00407250      -2.71493993       0.00000000
Si       2.71484253      -2.71492398      -0.00085941       0.00000000
