10
Lattice="16.28999089631971 0.0 0.0 0.0 16.28999089631971 0.0 0.0 0.0 34.376317263855086" Properties=species:S:1:pos:R:3:initial_magmoms:R:1 pbc="T T T"
Si       1.56367710      -1.69041330       0.55864984       0.00000000
Si      -2.06884629      -0.23802948       1.16054512       0.00000000
Si      -0.16329096       0.53633196      -2.51779164       0.00000000
Si       1.34542368       1.84267593      -1.37629101       0.00000000
Si       2.70817992       0.51911343      -0.00749404       0.00000000
Si       2.31026409      -0.44634600       2.45086091       0.00000000
Si       1.06999236       2.41707762       2.17770654       0.00000000
Si       0.45649467       3.40741188       0.12131409       0.00000000
Si      -2.29509810      -2.56958460       1.67863089       0.00000000
Si       1.32654357      -0.67678434      -3.85537489       0.00000000
