10
Lattice="16.28999089631971 0.0 0.0 0.0 16.28999089631971 0.0 0.0 0.0 34.376317263855086" Properties=species:S:1:pos:R:3:initial_magmoms:R:1 pbc="T T T"
Si      -1.47501063      -1.73581353       0.59275117       0.00000000
Si      -0.51109875       1.29111282      -1.93872225       0.00000000
Si       0.72917298      -1.57231080      -1.66556788       0.00000000
Si       0.77890635      -2.33702856       0.93225187       0.00000000
Si       2.31546060      -0.51595317       1.27515583       0.00000000
Si      -0.63271989       1.91681172       1.91950588       0.00000000
Si      -2.13216552       0.03645702       2.00039340       0.00000000
Si      -0.65254482       2.87283924      -0.29037691       0.00000000
Si       3.14333469       0.06183684      -0.83668565       0.00000000
Si       1.76321331       0.96164757      -2.56712168       0.00000000
