10
Lattice="16.28999089631971 0.0 0.0 0.0 16.28999089631971 0.0 0.0 0.0 34.376317263855086" Properties=species:S:1:pos:R:3:initial_magmoms:R:1 pbc="T T T"
Si      -1.94081829      -0.23356602      -1.49193300       0.00000000
Si       0.01014867       0.24285132       2.49317818       0.00000000
Si      -0.72117133       2.38078350       0.48205937       0.00000000
Si       2.37003210      -0.91375497      -1.06133501       0.00000000
Si      -2.93963543      -1.19823539       0.63324649       0.00000000
Si      -1.67824793       2.02867515      -2.34501617       0.00000000
Si       1.16385534       3.50275725      -0.35713576       0.00000000
Si      -0.16084746      -3.55028237       1.09883960       0.00000000
Si       2.43872703      -2.90203811       0.26961361       0.00000000
Si      -1.66535114       2.10233853       2.79756211       0.00000000
