10
Lattice="16.28999089631971 0.0 0.0 0.0 16.28999089631971 0.0 0.0 0.0 34.376317263855086" Properties=species:S:1:pos:R:3:initial_magmoms:R:1 pbc="T T T"
Si       1.27350333       1.38201102      -1.40218124       0.00000000
Si       1.38289068      -1.26879552       1.41270242       0.00000000
Si      -1.35024552       1.43410644       1.39184286       0.00000000
Si      -0.73078569      -2.08249731      -1.11961562       0.00000000
Si       0.37398582       0.63933363      -3.49401569       0.00000000
Si      -1.21780782      -1.32330186      -3.28779205       0.00000000
Si       0.01646919      -2.63116080       2.76881796       0.00000000
Si       2.77356798      -2.62814715       0.04676213       0.00000000
Si      -2.76038937      -2.67967242       0.03627735       0.00000000
Si      -2.69843850       0.08821035       2.77235872       0.00000000
