10
Lattice="16.28999089631971 0.0 0.0 0.0 16.28999089631971 0.0 0.0 0.0 34.376317263855086" Properties=species:S:1:pos:R:3:initial_magmoms:R:1 pbc="T T T"
Si       1.35736425       1.35650088       1.35755590       0.00000000
Si      -1.35822762      -1.35832536       1.35590584       0.00000000
Si      -1.35782037       1.35780408      -1.35721214       0.00000000
Si       1.35795069      -1.35788553      -1.35783091       0.00000000
Si       0.00234576      -2.71065600       2.71504305       0.00000000
Si      -0.00081450       2.71518462      -2.71425240       0.00000000
Si      -2.71538010       0.00089595      -2.71421802       0.00000000
Si      -2.71479366       2.71492398      -0.00017188       0.00000000
Si      -2.71480995      -2.71511946       0.00020626       0.00000000
Si      -2.71342530      -0.00092853       2.71669312       0.00000000
