10
Lattice="16.28999089631971 0.0 0.0 0.0 16.28999089631971 0.0 0.0 0.0 34.376317263855086" Properties=species:S:1:pos:R:3:initial_magmoms:R:1 pbc="T T T"
Si       1.35539316      -1.35884664      -1.35937785       0.00000000
Si      -1.35904212       1.35610992      -1.35927472       0.00000000
Si      -1.38958587      -1.34972424       1.34679611       0.00000000
Si       1.35754344       1.35742941       1.37938488       0.00000000
Si      -0.06051735      -2.71806795       2.62690213       0.00000000
Si      -0.18914319       2.56039704       2.80349337       0.00000000
Si      -2.71406061      -2.71104696      -0.00178757       0.00000000
Si       2.71081890       2.71813311      -0.00037814       0.00000000
Si       2.71313208      -0.00057015      -2.71693375       0.00000000
Si       2.71396287      -2.71774215      -0.00110004       0.00000000
