10
Lattice="16.28999089631971 0.0 0.0 0.0 16.28999089631971 0.0 0.0 0.0 34.376317263855086" Properties=species:S:1:pos:R:3:initial_magmoms:R:1 pbc="T T T"
Si      -0.81713898      -1.73172474      -1.34748364       0.00000000
Si       1.17221211      -1.37973042       1.53370025       0.00000000
Si       1.89084546       0.90049491      -1.19303076       0.00000000
Si      -1.85583825       1.79830197       0.30282115       0.00000000
Si      -2.14620750      -0.36338103      -2.62758965       0.00000000
Si       0.60092181       2.34377262      -2.59500089       0.00000000
Si      -2.99463957      -1.72037061       1.35662774       0.00000000
Si      -3.56395878       0.86003055      -1.11925914       0.00000000
Si       3.17493729       2.14151598       0.34661660       0.00000000
Si      -0.94576482       3.54674025      -1.17089240       0.00000000
