10
Lattice="16.28999089631971 0.0 0.0 0.0 16.28999089631971 0.0 0.0 0.0 34.376317263855086" Properties=species:S:1:pos:R:3:initial_magmoms:R:1 pbc="T T T"
Si      -1.32906852       1.36834371      -1.28010602       0.00000000
Si       1.42597773      -1.35718506      -1.26700863       0.00000000
Si       0.81713898       1.73172474       1.34748364       0.00000000
Si      -1.28857158      -1.55338182       1.20650628       0.00000000
Si      -2.17750059       0.01135413       2.70411138       0.00000000
Si       1.98935109       0.35199432       2.88118389       0.00000000
Si      -2.65354326       0.00702099      -2.62868970       0.00000000
Si       0.06129927      -2.70790299      -2.62954911       0.00000000
Si       2.70798444       2.63221965       0.15445288       0.00000000
Si       0.06051735       2.71806795      -2.62690213       0.00000000
