10
Lattice="16.28999089631971 0.0 0.0 0.0 16.28999089631971 0.0 0.0 0.0 34.376317263855086" Properties=species:S:1:pos:R:3:initial_magmoms:R:1 pbc="T T T"
Si      -1.82384469       1.08716202      -0.98299134       0.00000000
Si       0.88892901      -1.56473595      -1.49760510       0.00000000
Si       0.61349769      -0.99033426       2.05639245       0.00000000
Si      -2.70247842       1.48331853       1.18811494       0.00000000
Si      -0.45649467      -3.40741188      -0.12131409       0.00000000
Si       2.17750059      -0.01135413      -2.70411138       0.00000000
Si       2.88780975      -1.31979951       1.42799302       0.00000000
Si      -0.56931921       2.58040116      -2.47588688       0.00000000
Si       2.25168525      -2.88829845      -0.12880813       0.00000000
Si       2.99463957       1.72037061      -1.35662774       0.00000000
