10
Lattice="16.28999089631971 0.0 0.0 0.0 16.28999089631971 0.0 0.0 0.0 34.376317263855086" Properties=species:S:1:pos:R:3:initial_magmoms:R:1 pbc="T T T"
Si       1.77432309      -0.04289157       1.47096344       0.00000000
Si      -0.65523267       2.24358912      -0.01093167       0.00000000
Si       0.92010807      -0.23605839      -2.14188640       0.00000000
Si      -1.99972782      -1.31639490       0.38353679       0.00000000
Si      -2.16990945       1.47914829      -1.67969655       0.00000000
Si      -1.18936548      -0.28219167      -3.12886539       0.00000000
Si       1.54766403      -2.47422294      -1.97571119       0.00000000
Si      -1.67844015       2.18484738       2.22954605       0.00000000
Si       2.05718265      -2.33909739       1.70300371       0.00000000
Si      -3.57488937       0.26766099      -0.23197152       0.00000000
