10
Lattice="16.28999089631971 0.0 0.0 0.0 16.28999089631971 0.0 0.0 0.0 34.376317263855086" Properties=species:S:1:pos:R:3:initial_magmoms:R:1 pbc="T T T"
Si      -1.24608726       1.35120663       1.42156120       0.00000000
Si       1.47064491      -1.37578824       1.39617428       0.00000000
Si      -1.86191442      -0.84924657      -1.38764005       0.00000000
Si       0.86902263       1.66295229      -1.61122374       0.00000000
Si      -2.56298715       2.57711614      -0.12299853       0.00000000
Si       2.69962767       2.61345261      -0.00068753       0.00000000
Si      -2.59232544      -0.01174509       2.77864959       0.00000000
Si      -2.68356573      -2.72670165      -0.15135213       0.00000000
Si       0.12095325       2.70793787       2.77930274       0.00000000
Si       0.12245193      -2.72168433       2.77669014       0.00000000
