10
Lattice="16.28999089631971 0.0 0.0 0.0 16.28999089631971 0.0 0.0 0.0 34.376317263855086" Properties=species:S:1:pos:R:3:initial_magmoms:R:1 pbc="T T T"
Si      -1.35619137       1.35677781      -1.35789967       0.00000000
Si      -1.35700587      -1.35738054       1.35704026       0.00000000
Si       1.35858600      -1.35316143      -1.35985912       0.00000000
Si       1.35817875       1.35754344       1.35683400       0.00000000
Si      -2.71397916      -0.00026064       2.71408052       0.00000000
Si      -2.71451673       2.71426069       0.00041252       0.00000000
Si      -2.71456560      -2.71428867       0.00003438       0.00000000
Si       2.71417464       2.71476698      -0.00110004       0.00000000
Si       0.00099369       2.71460429       2.71452741       0.00000000
Si       0.00081450      -2.71518462       2.71425240       0.00000000
