10
Lattice="16.28999089631971 0.0 0.0 0.0 16.28999089631971 0.0 0.0 0.0 34.376317263855086" Properties=species:S:1:pos:R:3:initial_magmoms:R:1 pbc="T T T"
Si      -0.52598781       1.73716790      -1.47660116       0.00000000
Si       1.74482190      -1.15733934      -1.06876030       0.00000000
Si      -1.88892324      -1.42382745       0.20612051       0.00000000
Si       0.57088305       1.27842684       2.33050935       0.00000000
Si       1.71229077       2.48100840      -1.80266071       0.00000000
Si      -2.16005400      -1.23377202       2.55409305       0.00000000
Si       3.21584148       0.66938868      -1.55061341       0.00000000
Si       1.85736951       3.14049113       0.36696739       0.00000000
Si      -1.38652335       3.53156516      -0.01048478       0.00000000
Si       0.89787222      -1.90684224      -3.16537306       0.00000000
