10
Lattice="16.28999089631971 0.0 0.0 0.0 16.28999089631971 0.0 0.0 0.0 34.376317263855086" Properties=species:S:1:pos:R:3:initial_magmoms:R:1 pbc="T T T"
Si       0.56759247      -0.30540492      -2.24621140       0.00000000
Si       1.80631665       1.01300994       1.12056716       0.00000000
Si      -1.08554931      -1.84506242       1.10937079       0.00000000
Si      -1.75329270       1.81504809      -0.28084749       0.00000000
Si      -1.62966789      -0.93349845      -2.46470739       0.00000000
Si      -2.31174648      -0.40231413       2.52121380       0.00000000
Si       0.42182955       2.33103384       2.51964624       0.00000000
Si       2.52379341      -1.56489071      -2.19186241       0.00000000
Si      -0.53493102       3.22473582      -2.08216752       0.00000000
Si       0.84429441       1.73064960      -3.36615806       0.00000000
