10
Lattice="16.28999089631971 0.0 0.0 0.0 16.28999089631971 0.0 0.0 0.0 34.376317263855086" Properties=species:S:1:pos:R:3:initial_magmoms:R:1 pbc="T T T"
Si       1.35837423       1.35748154      -1.35655899       0.00000000
Si       1.35738054      -1.35756709       1.35752153       0.00000000
Si      -1.35705474       1.35699284       1.35858719       0.00000000
Si      -1.35889551      -1.35770437      -1.35769341       0.00000000
Si       0.00074934       2.71166924      -2.71707126       0.00000000
Si      -2.71432125       2.71445483       0.00024063       0.00000000
Si      -0.00083079       2.71324937       2.71617747       0.00000000
Si      -2.71489140      -2.71492791       0.00024063       0.00000000
Si      -2.71598283       0.00398942      -2.71383988       0.00000000
Si       2.71518462      -0.00193036       2.71497430       0.00000000
