10
Lattice="16.28999089631971 0.0 0.0 0.0 16.28999089631971 0.0 0.0 0.0 34.376317263855086" Properties=species:S:1:pos:R:3:initial_magmoms:R:1 pbc="T T T"
Si       1.34945450       1.33297199       1.37457219       0.00000000
Si       1.35218307      -1.35992206      -1.35827781       0.00000000
Si      -1.36089918       1.35428094      -1.35796842       0.00000000
Si      -1.37714031      -1.35668035       1.37460657       0.00000000
Si      -0.09071901       2.55644548       2.79307734       0.00000000
Si       2.71076093      -2.71474507       0.00350639       0.00000000
Si       2.71173833       2.71439332       0.00233759       0.00000000
Si       2.71175462      -0.00203585      -2.71524931       0.00000000
Si      -0.00310556       2.71348108      -2.71531807       0.00000000
Si      -0.00283764      -2.71656955      -2.71504305       0.00000000
