10
Lattice="16.28999089631971 0.0 0.0 0.0 16.28999089631971 0.0 0.0 0.0 34.376317263855086" Properties=species:S:1:pos:R:3:initial_magmoms:R:1 pbc="T T T"
Si       1.32659244      -0.25689330      -1.91383378       0.00000000
Si       1.44894663       0.25140357       1.86550065       0.00000000
Si      -1.22117985       1.99832688       0.40687832       0.00000000
Si      -1.23036741      -2.03670612      -0.16270320       0.00000000
Si      -0.69724458      -1.42798140      -2.53453291       0.00000000
Si      -2.04905394       1.42053687       2.51871980       0.00000000
Si       2.73183367      -2.05060149      -1.24301395       0.00000000
Si      -3.63534156       0.36417924      -0.42200391       0.00000000
Si       2.10070953       1.92309966      -2.40235590       0.00000000
Si      -0.04176756       0.78451011       3.67926492       0.00000000
