10
Lattice="16.28999089631971 0.0 0.0 0.0 16.28999089631971 0.0 0.0 0.0 34.376317263855086" Properties=species:S:1:pos:R:3:initial_magmoms:R:1 pbc="T T T"
Si      -2.19726036      -0.62809353      -0.21849599       0.00000000
Si       1.95620094      -1.25948578       0.05434899       0.00000000
Si      -0.56759247       0.30540492       2.24621140       0.00000000
Si       0.27670194       2.03605452      -1.11994667       0.00000000
Si      -2.34233910      -1.28757626      -2.38812409       0.00000000
Si       1.02482019      -3.37387796      -0.66078194       0.00000000
Si       2.95501807      -0.29481642      -2.07083051       0.00000000
Si      -1.10252349       3.53014074       0.16404388       0.00000000
Si      -2.32088517       2.12045301       1.96536391       0.00000000
Si       1.23872418       1.31841486       3.36677856       0.00000000
