10
Lattice="16.28999089631971 0.0 0.0 0.0 16.28999089631971 0.0 0.0 0.0 34.376317263855086" Properties=species:S:1:pos:R:3:initial_magmoms:R:1 pbc="T T T"
Si      -1.34420193      -1.34509788      -1.37102111       0.00000000
Si       1.35412254       1.34425080      -1.36234797       0.00000000
Si      -1.35503478       1.35576783       1.35490893       0.00000000
Si       1.35766882      -1.35798327       1.35587146       0.00000000
Si      -2.71357191      -0.00141723       2.71315236       0.00000000
Si       0.00092853       2.71417464       2.71294610       0.00000000
Si      -2.71384884       2.71428867      -0.00745967       0.00000000
Si       0.00117288      -2.71583622       2.71253358       0.00000000
Si       2.71600794      -0.00096111       2.71270546       0.00000000
Si       2.71423721      -2.71469592      -0.00587835       0.00000000
