10
Lattice="16.28999089631971 0.0 0.0 0.0 16.28999089631971 0.0 0.0 0.0 34.376317263855086" Properties=species:S:1:pos:R:3:initial_magmoms:R:1 pbc="T T T"
Si      -1.42597773       1.35718506       1.26700863       0.00000000
Si       1.34850249       1.35751086      -1.36099354       0.00000000
Si      -1.36467846      -1.35071793      -1.36254047       0.00000000
Si       1.40023953      -1.30583898       1.43156816       0.00000000
Si      -2.71454931      -0.19619676       2.47351491       0.00000000
Si       2.38987332       0.34050987       2.91992602       0.00000000
Si       2.71251306      -2.70917361       0.01533185       0.00000000
Si       2.70355356       2.71909422       0.00268135       0.00000000
Si       2.70544320       0.00078192      -2.71954635       0.00000000
Si      -0.01044189      -2.71422351      -2.71820568       0.00000000
