10
Lattice="16.28999089631971 0.0 0.0 0.0 16.28999089631971 0.0 0.0 0.0 34.376317263855086" Properties=species:S:1:pos:R:3:initial_magmoms:R:1 pbc="T T T"
Si      -1.96283097       0.55343646       1.15074786       0.00000000
Si       0.78982947      -1.28769192       1.80221382       0.00000000
Si       1.14658861       2.07624195       0.16084688       0.00000000
Si       0.01369989      -1.44901179      -1.90939923       0.00000000
Si      -1.58276898      -0.18220365      -3.30978805       0.00000000
Si      -3.30818949      -1.37378457       0.89983498       0.00000000
Si      -1.19418732       1.29463146       3.26279560       0.00000000
Si       0.87880219       0.15310971       3.65544212       0.00000000
Si       0.57659825       3.24943146      -2.03669481       0.00000000
Si      -3.15884277       2.27559897       0.10027577       0.00000000
