10
Lattice="16.28999089631971 0.0 0.0 0.0 16.28999089631971 0.0 0.0 0.0 34.376317263855086" Properties=species:S:1:pos:R:3:initial_magmoms:R:1 pbc="T T T"
Si       0.48760857      -0.78698619      -2.20242313       0.00000000
Si       0.00281817      -1.81638387       1.64480457       0.00000000
Si       2.32524016       0.80070237       0.17714126       0.00000000
Si      -0.72594756       2.31684525       0.42960108       0.00000000
Si      -1.98998640      -1.70106696      -0.70877131       0.00000000
Si      -1.40608764       1.87419708       2.63583998       0.00000000
Si       0.53247123      -3.49617609       0.00501895       0.00000000
Si       1.59533576      -2.87896428      -2.06704911       0.00000000
Si      -2.90361105       0.06211377       2.75870100       0.00000000
Si       2.44445201       3.17275443      -0.53386451       0.00000000
