10
Lattice="16.28999089631971 0.0 0.0 0.0 16.28999089631971 0.0 0.0 0.0 34.376317263855086" Properties=species:S:1:pos:R:3:initial_magmoms:R:1 pbc="T T T"
Si      -0.93330297      -1.76801886      -1.48430146       0.00000000
Si       1.84816566       0.95592978      -1.44480305       0.00000000
Si      -1.76570568       1.93709277      -0.21859912       0.00000000
Si       0.59347728      -1.08009216       2.62222695       0.00000000
Si      -2.08537901      -0.27694629      -2.94144561       0.00000000
Si       0.67497615       2.44102392      -2.94258003       0.00000000
Si      -3.49274609      -1.19500182       1.37347215       0.00000000
Si      -3.51942911       1.05285528      -1.54002550       0.00000000
Si      -0.63382761       3.67541496      -1.47457295       0.00000000
Si       3.38357961       2.18699766       0.04128598       0.00000000
