10
Lattice="16.28999089631971 0.0 0.0 0.0 16.28999089631971 0.0 0.0 0.0 34.376317263855086" Properties=species:S:1:pos:R:3:initial_magmoms:R:1 pbc="T T T"
Si      -1.17221211       1.37973042      -1.53370025       0.00000000
Si      -1.27904193      -1.66043970       1.25092051       0.00000000
Si       0.25042617       1.08913311       2.18179732       0.00000000
Si       1.82649996      -1.36866951      -1.22826650       0.00000000
Si      -1.98935109      -0.35199432      -2.88118389       0.00000000
Si       1.44643797      -0.63302940       3.23226941       0.00000000
Si       0.71863335       2.28022533      -2.72673101       0.00000000
Si      -1.91516643      -3.22893864      -0.30588064       0.00000000
Si       0.10107945      -2.56025043       2.98135653       0.00000000
Si      -1.84184514       1.63711242       3.12632154       0.00000000
