10
Lattice="16.28999089631971 0.0 0.0 0.0 16.28999089631971 0.0 0.0 0.0 34.376317263855086" Properties=species:S:1:pos:R:3:initial_magmoms:R:1 pbc="T T T"
Si      -0.36878931      -0.44764920       2.27396028       0.00000000
Si       1.59720585       1.51047396      -0.82461956       0.00000000
Si      -2.20389039       0.45856350      -0.68010144       0.00000000
Si       1.09169131      -1.86572628      -0.99409490       0.00000000
Si       0.52170095      -0.69253677      -3.19163658       0.00000000
Si      -1.24908462      -2.64733677       2.10785382       0.00000000
Si      -3.14116812       1.22767956       1.40582028       0.00000000
Si       3.21343775      -1.82760768       0.15280282       0.00000000
Si       3.69487241       0.49528116      -0.32901592       0.00000000
Si      -3.21374007      -1.66636926      -1.05466600       0.00000000
