10
Lattice="16.28999089631971 0.0 0.0 0.0 16.28999089631971 0.0 0.0 0.0 34.376317263855086" Properties=species:S:1:pos:R:3:initial_magmoms:R:1 pbc="T T T"
Si       1.97610473      -0.02026476       1.20578438       0.00000000
Si      -1.63906722       1.16527257       1.16357024       0.00000000
Si       0.36878931       0.44764920      -2.27396028       0.00000000
Si      -0.88029531      -2.19968757      -0.16610646       0.00000000
Si      -2.77237881       1.67532876      -0.86814000       0.00000000
Si       1.19269420      -3.34120932       0.22654006       0.00000000
Si       3.07787237      -1.79087373       0.16253132       0.00000000
Si      -1.83510108       0.90621270      -2.95406172       0.00000000
Si       2.52916001       2.30480694       1.29107207       0.00000000
Si      -3.00682449      -1.93243383       0.88739075       0.00000000
