10
Lattice="16.28999089631971 0.0 0.0 0.0 16.28999089631971 0.0 0.0 0.0 34.376317263855086" Properties=species:S:1:pos:R:3:initial_magmoms:R:1 pbc="T T T"
Si      -1.35156501      -1.35439947       1.37939175       0.00000000
Si       1.36199061       1.36218676       1.38241687       0.00000000
Si      -1.49107257       1.27089597      -1.39523581       0.00000000
Si       1.34384355      -1.30948794      -1.53775666       0.00000000
Si       2.70663237      -2.70622512      -0.00575804       0.00000000
Si       2.70884796       2.72017655       0.01832602       0.00000000
Si      -2.71726974       2.71364426       0.01660721       0.00000000
Si      -2.72005533      -2.71834488       0.00162600       0.00000000
Si      -2.71265967       0.00368744       2.74090094       0.00000000
Si       0.00405621      -2.71280628       2.74124470       0.00000000
