10
Lattice="16.28999089631971 0.0 0.0 0.0 16.28999089631971 0.0 0.0 0.0 34.376317263855086" Properties=species:S:1:pos:R:3:initial_magmoms:R:1 pbc="T T T"
Si      -1.13264370       0.63355068       1.95652919       0.00000000
Si       2.10084052       0.88062111      -0.69763337       0.00000000
Si       0.70815988      -2.22808104       0.65043466       0.00000000
Si      -1.42809543       0.86776830      -1.76264665       0.00000000
Si      -1.46293974      -1.10613987      -2.98135653       0.00000000
Si      -3.14858007      -0.73521657       1.77031258       0.00000000
Si      -0.03530043       2.47472793      -2.75306328       0.00000000
Si       1.59660638      -1.66236192       2.90043464       0.00000000
Si       1.64955051       3.15516123      -1.17604885       0.00000000
Si       0.02756268      -0.16825941       3.90876134       0.00000000
