10
Lattice="16.28999089631971 0.0 0.0 0.0 16.28999089631971 0.0 0.0 0.0 34.376317263855086" Properties=species:S:1:pos:R:3:initial_magmoms:R:1 pbc="T T T"
Si       1.57757247       1.71685197      -0.30134297       0.00000000
Si      -0.22889079      -1.60119297      -1.71149466       0.00000000
Si      -1.81060255       1.58451201       0.39405595       0.00000000
Si       0.50772672      -1.46487825       1.90840232       0.00000000
Si      -0.91440657       1.93543119       2.58506613       0.00000000
Si       0.90329679       3.10656816       1.56848910       0.00000000
Si       0.96710472      -3.40804719      -0.73207846       0.00000000
Si      -0.60072633      -0.24268842       3.59150213       0.00000000
Si       1.31582475       2.37244302      -2.60008859       0.00000000
Si      -2.54050695      -2.09515464      -1.85013443       0.00000000
