10
Lattice="16.28999089631971 0.0 0.0 0.0 16.28999089631971 0.0 0.0 0.0 34.376317263855086" Properties=species:S:1:pos:R:3:initial_magmoms:R:1 pbc="T T T"
Si      -1.10845305       1.22218983       1.68309981       0.00000000
Si      -0.62112141      -2.25212508      -0.53816155       0.00000000
Si       2.30540967      -0.23493438       0.73713178       0.00000000
Si      -0.50772672       1.46487825      -1.90840232       0.00000000
Si       0.45937800      -1.94316894      -2.64048078       0.00000000
Si      -0.73661751      -0.13631472      -3.61989698       0.00000000
Si      -1.42213329       3.40030944       0.67666381       0.00000000
Si      -3.28414871       0.30182112       1.90805856       0.00000000
Si       3.37362642       1.84454928       0.38769632       0.00000000
Si       0.10305054      -3.72924852       1.19028065       0.00000000
