10
Lattice="16.28999089631971 0.0 0.0 0.0 16.28999089631971 0.0 0.0 0.0 34.376317263855086" Properties=species:S:1:pos:R:3:initial_magmoms:R:1 pbc="T T T"
Si      -0.90531023       1.35062019       1.72923285       0.00000000
Si       1.81770336       1.17113697      -1.01657702       0.00000000
Si      -0.89619598      -0.35091918      -2.19101018       0.00000000
Si       0.31368024      -2.17811961       1.00643600       0.00000000
Si       0.91440657      -1.93543119      -2.58506613       0.00000000
Si      -0.77698413       2.02113288      -2.90201595       0.00000000
Si       0.98008785      -1.62440622       3.21927516       0.00000000
Si       1.42213329      -3.40030944      -0.67666381       0.00000000
Si      -3.07902896       0.43091937       2.12517950       0.00000000
Si      -1.86201542      -3.09848832       1.23139475       0.00000000
