10
Lattice="16.28999089631971 0.0 0.0 0.0 16.28999089631971 0.0 0.0 0.0 34.376317263855086" Properties=species:S:1:pos:R:3:initial_magmoms:R:1 pbc="T T T"
Si      -1.88502667      -1.12197375       0.83919513       0.00000000
Si       2.15998884      -0.81148635       0.44936747       0.00000000
Si      -0.66640761      -0.55371339      -2.21283916       0.00000000
Si      -0.32347053       2.30324310       0.65514422       0.00000000
Si       2.13058539      -0.95881311       2.83529148       0.00000000
Si      -1.16385534      -3.50275725       0.35713576       0.00000000
Si      -0.98008785       1.62440622      -3.21927516       0.00000000
Si      -2.84210327      -1.47408210      -1.98788041       0.00000000
Si      -3.78062297      -0.17440074      -0.25534743       0.00000000
Si      -1.88539808       2.97502641      -1.49004230       0.00000000
