10
Lattice="16.28999089631971 0.0 0.0 0.0 16.28999089631971 0.0 0.0 0.0 34.376317263855086" Properties=species:S:1:pos:R:3:initial_magmoms:R:1 pbc="T T T"
Si       1.05858936       1.50117237      -1.42273485       0.00000000
Si      -1.27394316       1.38487806       1.36353051       0.00000000
Si       1.45461555      -1.35725022       1.34384318       0.00000000
Si      -1.81372860      -0.80591517      -1.44449507       0.00000000
Si       1.36317978      -0.04740390      -3.10920354       0.00000000
Si      -2.58873187      -2.64248235      -0.06898987       0.00000000
Si      -2.61814672       0.00521280       2.72836045       0.00000000
Si      -2.62411049       2.80171710      -0.15645702       0.00000000
Si       2.72021823       2.71783989      -0.19899430       0.00000000
Si       0.09642051      -2.71567332       2.72966675       0.00000000
