10
Lattice="16.28999089631971 0.0 0.0 0.0 16.28999089631971 0.0 0.0 0.0 34.376317263855086" Properties=species:S:1:pos:R:3:initial_magmoms:R:1 pbc="T T T"
Si      -1.24256115      -1.17511173      -1.53531594       0.00000000
Si       0.60251660      -1.89545553       1.29646915       0.00000000
Si      -1.97626275       0.78757263       1.14380384       0.00000000
Si       1.55225618       1.55742174      -1.40932667       0.00000000
Si       2.63972771      -2.28437928       0.06569318       0.00000000
Si      -2.54641275      -2.54373237       0.06005546       0.00000000
Si       0.31254157      -2.36061648      -2.88400275       0.00000000
Si      -2.42317890       0.37546821      -2.88788727       0.00000000
Si      -2.53479798       2.87174685      -0.02189773       0.00000000
Si      -1.35183447       1.55411487       3.31112873       0.00000000
