10
Lattice="16.28999089631971 0.0 0.0 0.0 16.28999089631971 0.0 0.0 0.0 34.376317263855086" Properties=species:S:1:pos:R:3:initial_magmoms:R:1 pbc="T T T"
Si      -1.63080656      -0.74930742       1.62067238       0.00000000
Si      -1.89799840       1.36105135      -0.64837208       0.00000000
Si       0.47286612      -2.35657656      -0.47989366       0.00000000
Si       1.87222599       1.46332648      -0.67542626       0.00000000
Si       0.00242721      -0.08456139       3.48620741       0.00000000
Si      -1.09445342       2.20239890      -2.70115501       0.00000000
Si       2.18505915      -2.71117728       1.15064473       0.00000000
Si       2.60200170       0.56368287       2.65698142       0.00000000
Si       1.15727418      -2.38246137      -2.69960808       0.00000000
Si      -1.77754362       3.23215496       0.89543481       0.00000000
