10
Lattice="16.28999089631971 0.0 0.0 0.0 16.28999089631971 0.0 0.0 0.0 34.31052061344573" Properties=species:S:1:pos:R:3:initial_magmoms:R:1 pbc="T T T"
Si      -1.37150397      -1.34463836       1.38630020       0.00000000
Si       1.34377839       1.37308329       1.38777556       0.00000000
Si      -1.35588838       1.42476494      -1.34241016       0.00000000
Si       1.29888315      -1.61036084      -1.52083526       0.00000000
Si       2.69086365      -2.72032886       0.02058632       0.00000000
Si       2.70363501       2.70825567       0.01253707       0.00000000
Si      -2.72413502      -2.70314291       0.01813312       0.00000000
Si       2.69737965       0.01688191       2.74685035       0.00000000
Si      -0.01695789      -2.69820704       2.74681604       0.00000000
Si      -2.74301513       2.73114312       0.02781899       0.00000000
