10
Lattice="16.28999089631971 0.0 0.0 0.0 16.28999089631971 0.0 0.0 0.0 34.31052061344573" Properties=species:S:1:pos:R:3:initial_magmoms:R:1 pbc="T T T"
Si      -1.12917882      -1.10625390       1.73137846       0.00000000
Si      -1.81498782       0.09899433      -1.50256147       0.00000000
Si      -0.80569363       2.25108482       0.37353885       0.00000000
Si       2.35085877      -0.38996631      -0.56756495       0.00000000
Si      -2.03763905       0.87378324       2.60135651       0.00000000
Si      -2.63260151       2.27076314      -1.10363282       0.00000000
Si       0.55009701      -2.53864989       2.56553630       0.00000000
Si       2.75301000       1.14357659      -2.33977295       0.00000000
Si      -1.05202449       0.26396316      -3.64391657       0.00000000
Si      -3.34271519      -1.67343912      -1.39259619       0.00000000
