10
Lattice="16.28999089631971 0.0 0.0 0.0 16.28999089631971 0.0 0.0 0.0 34.31052061344573" Properties=species:S:1:pos:R:3:initial_magmoms:R:1 pbc="T T T"
Si       1.35641943      -1.35700358       1.35773668       0.00000000
Si      -1.35752715       1.35754018       1.35694754       0.00000000
Si      -1.35874890      -1.35711198      -1.35739358       0.00000000
Si       1.35832536       1.35799630      -1.35845720       0.00000000
Si      -0.00211770      -2.71441314       2.71375783       0.00000000
Si      -0.00237834       2.71356865       2.71464991       0.00000000
Si       2.71308321      -0.00089106       2.71564491       0.00000000
Si      -2.71235016      -0.00091061      -2.71646837       0.00000000
Si       2.71503801      -2.71447830      -0.00013724       0.00000000
Si      -0.00184077      -2.71034064      -2.71917890       0.00000000
