10
Lattice="16.28999089631971 0.0 0.0 0.0 16.28999089631971 0.0 0.0 0.0 34.31052061344573" Properties=species:S:1:pos:R:3:initial_magmoms:R:1 pbc="T T T"
Si      -2.13592851      -0.78411915       0.60214997       0.00000000
Si       1.11860172       0.76312134       1.93456548       0.00000000
Si       0.52782858       1.82796606      -1.55622315       0.00000000
Si       1.47202956      -2.04548480      -0.03228622       0.00000000
Si      -2.44908747      -1.19132028      -1.67627573       0.00000000
Si       2.61211779       1.84125870       0.18342415       0.00000000
Si       1.86831639       0.50153652      -2.99273683       0.00000000
Si       3.12386814      -0.98903106      -1.56226181       0.00000000
Si       0.75733839       3.06484947       1.88982453       0.00000000
Si      -0.84502746      -2.23303809      -2.99417788       0.00000000
