10
Lattice="16.28999089631971 0.0 0.0 0.0 16.28999089631971 0.0 0.0 0.0 34.31052061344573" Properties=species:S:1:pos:R:3:initial_magmoms:R:1 pbc="T T T"
Si       1.61688024       1.62211910      -0.10197092       0.00000000
Si      -2.10193128       0.93782833       0.01101368       0.00000000
Si       0.28776285      -1.11923444      -2.01704801       0.00000000
Si       0.51464997      -1.37016560       1.89987752       0.00000000
Si      -3.02111082      -0.88943141      -1.06421001       0.00000000
Si       3.44469969       0.15461816       0.17896378       0.00000000
Si       0.98639208       2.81962958       1.82202690       0.00000000
Si       2.75133213      -1.82778428       1.33656708       0.00000000
Si      -2.59542054       1.21895789       2.27283309       0.00000000
Si       0.56123937      -3.37041470      -1.46955473       0.00000000
