10
Lattice="16.28999089631971 0.0 0.0 0.0 16.28999089631971 0.0 0.0 0.0 34.31052061344573" Properties=species:S:1:pos:R:3:initial_magmoms:R:1 pbc="T T T"
Si      -1.17467190      -1.59892866       1.32023423       0.00000000
Si       1.66377915       1.26936567       1.19399546       0.00000000
Si      -1.87810668       1.78178391      -0.26721979       0.00000000
Si       1.61023392      -1.33908687      -1.57520618       0.00000000
Si       2.46039273       0.86837103      -2.11666081       0.00000000
Si       0.23667741       2.47961493       2.66289829       0.00000000
Si      -2.49088761      -0.22403637       2.66385899       0.00000000
Si      -2.93843907      -2.37146562      -0.16270988       0.00000000
Si       2.94487362      -0.22380831       2.62967196       0.00000000
Si       2.55311541       2.97408159      -0.65235560       0.00000000
