10
Lattice="16.28999089631971 0.0 0.0 0.0 16.28999089631971 0.0 0.0 0.0 34.31052061344573" Properties=species:S:1:pos:R:3:initial_magmoms:R:1 pbc="T T T"
Si      -0.42536448       1.40309028       1.76393916       0.00000000
Si       2.23822971       0.46292922      -0.44339511       0.00000000
Si      -0.43712586      -1.82653254       1.39400292       0.00000000
Si      -1.47023766       1.22473107      -1.40028175       0.00000000
Si      -2.04398775      -0.68041701      -2.65217042       0.00000000
Si      -1.87196535      -2.96794026      -0.04096678       0.00000000
Si      -0.74681505      -2.73624759      -2.10738766       0.00000000
Si      -2.82282894       1.35638685       1.76140018       0.00000000
Si      -0.02236617       2.90582649      -2.16650472       0.00000000
Si       3.07315737      -1.44005229      -1.51971674       0.00000000
