10
Lattice="16.28999089631971 0.0 0.0 0.0 16.28999089631971 0.0 0.0 0.0 34.31052061344573" Properties=species:S:1:pos:R:3:initial_magmoms:R:1 pbc="T T T"
Si      -1.40646231       1.13525010      -1.47667760       0.00000000
Si       1.34438112       1.36664955       1.35590107       0.00000000
Si      -1.36642149      -1.35088083       1.35689607       0.00000000
Si       1.42710174      -1.21024926      -1.46890283       0.00000000
Si       0.31556988       1.96612155      -2.84276344       0.00000000
Si      -0.23667741      -2.47961493      -2.66289829       0.00000000
Si      -2.11478409      -0.69783102      -2.93011808       0.00000000
Si       2.70819621      -2.70342324      -0.03322633       0.00000000
Si       2.70521514       0.00741195       2.71185360       0.00000000
Si      -0.01177767      -2.70892926       2.71593655       0.00000000
