10
Lattice="16.28999089631971 0.0 0.0 0.0 16.28999089631971 0.0 0.0 0.0 34.31052061344573" Properties=species:S:1:pos:R:3:initial_magmoms:R:1 pbc="T T T"
Si       0.77835249       1.78784379      -1.21973969       0.00000000
Si       1.89905562      -1.25235891       0.58695040       0.00000000
Si      -1.94904963      -1.08018990      -1.09447191       0.00000000
Si       1.82825928       1.23346251       1.75392048       0.00000000
Si       2.10768165       0.37053234      -2.61171829       0.00000000
Si       1.00154178      -2.51139672       2.27870019       0.00000000
Si      -0.61639731      -2.36423286      -2.59871459       0.00000000
Si       3.33923823      -1.12894587      -1.28383178       0.00000000
Si       0.77203197      -3.74828013      -1.16734750       0.00000000
Si      -0.62534052       3.08255670      -2.59301904       0.00000000
