10
Lattice="16.28999089631971 0.0 0.0 0.0 16.28999089631971 0.0 0.0 0.0 34.31052061344573" Properties=species:S:1:pos:R:3:initial_magmoms:R:1 pbc="T T T"
Si       1.40374188      -1.88221176       0.14197701       0.00000000
Si       0.21898647       1.92396303       1.35945221       0.00000000
Si      -0.54722997       0.76297473      -2.18465500       0.00000000
Si      -1.99252764      -0.55039023       1.19438420       0.00000000
Si      -2.23070373       2.16982800      -1.41850065       0.00000000
Si      -3.02451543       1.47124764       0.70257692       0.00000000
Si       1.48113567       1.89913707      -2.53417647       0.00000000
Si       0.43246692      -3.05455419      -1.64543056       0.00000000
Si       0.52587378      -2.88126117       2.02644910       0.00000000
Si       1.23486345       0.87255756       3.24841898       0.00000000
