10
Lattice="16.28999089631971 0.0 0.0 0.0 16.28999089631971 0.0 0.0 0.0 34.31052061344573" Properties=species:S:1:pos:R:3:initial_magmoms:R:1 pbc="T T T"
Si      -1.35200484       1.35534429       1.35530063       0.00000000
Si      -1.35549090      -1.35697329      -1.35657012       0.00000000
Si       1.35853713       1.35740957      -1.35602115       0.00000000
Si       1.35641943      -1.35444834       1.36205981       0.00000000
Si      -2.69861769      -0.01238040       2.70490571       0.00000000
Si      -2.71280628      -0.00079821      -2.71365490       0.00000000
Si       0.00415395       2.69871773       2.72882016       0.00000000
Si      -2.71412577      -2.71358820       0.00089207       0.00000000
Si      -2.71267596       2.71548503       0.00106363       0.00000000
Si       0.00211770       2.71441314      -2.71375783       0.00000000
