10
Lattice="16.28999089631971 0.0 0.0 0.0 16.28999089631971 0.0 0.0 0.0 34.31052061344573" Properties=species:S:1:pos:R:3:initial_magmoms:R:1 pbc="T T T"
Si      -1.20208797       1.40035586      -1.53886202       0.00000000
Si       1.11496905       1.58790915       1.42302964       0.00000000
Si      -1.74327435      -0.95208534       1.38031302       0.00000000
Si       1.49224545      -1.30108230      -1.51779535       0.00000000
Si      -2.80614798       2.44207367      -0.22095988       0.00000000
Si      -2.73292443      -2.63793744       0.01537112       0.00000000
Si       2.76680763       2.64436289      -0.10694595       0.00000000
Si      -2.55824676       0.05698242      -2.91238155       0.00000000
Si       2.77825950      -2.71681362      -0.05849947       0.00000000
Si      -3.58461450       0.62866272       1.46355039       0.00000000
