10
Lattice="16.28999089631971 0.0 0.0 0.0 16.28999089631971 0.0 0.0 0.0 34.31052061344573" Properties=species:S:1:pos:R:3:initial_magmoms:R:1 pbc="T T T"
Si       1.35205371      -1.35807060      -1.36216274       0.00000000
Si       1.35122292       1.35384365       1.36864743       0.00000000
Si      -1.36340784       1.35712935      -1.36130498       0.00000000
Si      -1.38012138      -1.35911316       1.38669478       0.00000000
Si      -0.10555920       2.58633202       2.79754417       0.00000000
Si       2.71085148      -2.71317054      -0.00027448       0.00000000
Si       2.70716994       2.71731991      -0.00274484       0.00000000
Si       2.71023246       0.00131446      -2.71941907       0.00000000
Si      -2.72218932      -2.71084107      -0.00113225       0.00000000
Si      -0.00434943      -2.71398504      -2.71948769       0.00000000
