10
Lattice="16.28999089631971 0.0 0.0 0.0 16.28999089631971 0.0 0.0 0.0 34.31052061344573" Properties=species:S:1:pos:R:3:initial_magmoms:R:1 pbc="T T T"
Si       1.45678212      -1.23248837      -1.42889674       0.00000000
Si      -1.25555175       1.49056758      -1.43047502       0.00000000
Si       1.62377091       1.20819672       1.37924939       0.00000000
Si      -1.65183858      -1.05645374       1.52997559       0.00000000
Si      -0.51175035       2.83028976       1.74568595       0.00000000
Si      -3.12386814       0.98903106       1.56226181       0.00000000
Si       0.38294532       1.33949412       3.46690849       0.00000000
Si       0.10555920      -2.58633202      -2.79754417       0.00000000
Si      -2.76680763      -2.64436289       0.10694595       0.00000000
Si      -2.59603956       2.81699712       0.00603866       0.00000000
