10
Lattice="16.28999089631971 0.0 0.0 0.0 16.28999089631971 0.0 0.0 0.0 34.31052061344573" Properties=species:S:1:pos:R:3:initial_magmoms:R:1 pbc="T T T"
Si       2.21819301      -0.78757346      -0.37559748       0.00000000
Si      -1.10956077      -2.19571364       0.07863976       0.00000000
Si       0.15338664       0.58403218       2.40746765       0.00000000
Si      -0.82624509       1.38278463      -2.11596530       0.00000000
Si      -1.59495390      -0.60385484       3.51689895       0.00000000
Si       3.81407544       0.83110586       0.38235666       0.00000000
Si      -3.50904519      -1.79191712       0.14647169       0.00000000
Si       2.52693738      -1.66171115      -2.53307853       0.00000000
Si       1.20853881       3.77873249      -0.17903240       0.00000000
Si      -1.94121414      -0.20512451      -3.53899494       0.00000000
