10
Lattice="16.28999089631971 0.0 0.0 0.0 16.28999089631971 0.0 0.0 0.0 34.31052061344573" Properties=species:S:1:pos:R:3:initial_magmoms:R:1 pbc="T T T"
Si      -1.95719463       0.63409835      -1.12891969       0.00000000
Si       0.10353924      -2.33892832       0.17076356       0.00000000
Si      -0.54859833       0.72006394       2.17652340       0.00000000
Si       1.69588674       1.41389576      -0.83391767       0.00000000
Si       1.24115139       2.18171677       2.49804747       0.00000000
Si      -2.24829693       2.89490926      -0.39230671       0.00000000
Si       1.70349417       0.88117204      -3.15403068       0.00000000
Si      -2.37641778       2.18756488       1.89558870       0.00000000
Si      -3.70553517      -0.55378867      -0.01948839       0.00000000
Si       2.05390836      -2.85786256       1.33642984       0.00000000
