10
Lattice="16.28999089631971 0.0 0.0 0.0 16.28999089631971 0.0 0.0 0.0 34.31052061344573" Properties=species:S:1:pos:R:3:initial_magmoms:R:1 pbc="T T T"
Si      -0.28103508       2.34569484      -0.11562652       0.00000000
Si       1.56923199      -0.75236994      -1.71748269       0.00000000
Si       1.40437719      -0.63596160       1.90440651       0.00000000
Si      -1.68019947      -0.21035277      -2.00153965       0.00000000
Si      -1.38052863       2.14303095      -2.19951146       0.00000000
Si      -2.08666755       0.41663304       2.63038322       0.00000000
Si      -1.23650874       2.62409094       2.08892859       0.00000000
Si      -3.41459577      -1.14036516      -0.72069289       0.00000000
Si       1.18796454      -3.07604559      -1.77742320       0.00000000
Si       0.55288260      -2.71111701       2.61350244       0.00000000
