10
Lattice="16.28999089631971 0.0 0.0 0.0 16.28999089631971 0.0 0.0 0.0 34.31052061344573" Properties=species:S:1:pos:R:3:initial_magmoms:R:1 pbc="T T T"
Si      -1.35783666      -1.35676152      -1.35663874       0.00000000
Si       1.35847197      -1.35868374       1.35578098       0.00000000
Si       1.35742941       1.35883035      -1.35711909       0.00000000
Si      -1.35873261       1.35791811       1.35986393       0.00000000
Si       2.71437012      -2.71212210      -0.00109794       0.00000000
Si      -0.00024435      -2.71358820      -2.71468422       0.00000000
Si       2.71437012       0.00125433      -2.71406663       0.00000000
Si       2.71412577       2.71565703      -0.00123518       0.00000000
Si      -2.71437012       2.71568961       0.00030879       0.00000000
Si      -2.71585251       0.00091224      -2.71458129       0.00000000
