10
Lattice="16.28999089631971 0.0 0.0 0.0 16.28999089631971 0.0 0.0 0.0 34.31052061344573" Properties=species:S:1:pos:R:3:initial_magmoms:R:1 pbc="T T T"
Si       1.35741312      -1.35630540      -1.35694754       0.00000000
Si      -1.35672894      -1.35749457       1.35766806       0.00000000
Si       1.35736425       1.35622395       1.35831996       0.00000000
Si      -1.35812988       1.35788553      -1.35739358       0.00000000
Si       2.71541268       0.00004887      -2.71183644       0.00000000
Si      -2.71494027      -2.71432125      -0.00006862       0.00000000
Si       2.71507059      -2.71435383       0.00024017       0.00000000
Si      -2.71596654       0.00006516      -2.71389508       0.00000000
Si      -0.00030951       2.71489140      -2.71499301       0.00000000
Si       2.71482624       2.71539639       0.00020586       0.00000000
