10
Lattice="16.28999089631971 0.0 0.0 0.0 16.28999089631971 0.0 0.0 0.0 34.31052061344573" Properties=species:S:1:pos:R:3:initial_magmoms:R:1 pbc="T T T"
Si       1.34661285      -1.34804637      -1.35324200       0.00000000
Si       1.35591444       1.35793440       1.35509477       0.00000000
Si      -1.35799956      -1.35635427       1.35488891       0.00000000
Si      -1.35658233       1.35501849      -1.36205981       0.00000000
Si       2.70811476       0.01394424      -2.70079531       0.00000000
Si       0.01063737       2.70332550      -2.72185855       0.00000000
Si      -0.03398094      -2.69614161      -2.72958185       0.00000000
Si       2.71432125      -0.00032580       2.71197369       0.00000000
Si      -0.00034209      -2.71440270       2.71207662       0.00000000
Si      -2.71541268      -0.00004887       2.71183644       0.00000000
