10
Lattice="16.28999089631971 0.0 0.0 0.0 16.28999089631971 0.0 0.0 0.0 34.31052061344573" Properties=species:S:1:pos:R:3:initial_magmoms:R:1 pbc="T T T"
Si       2.05087842      -1.30069134       0.36142723       0.00000000
Si       0.83442267       2.22850458      -0.71595803       0.00000000
Si      -1.27578393       0.51878763       2.16969560       0.00000000
Si       0.07079634      -2.48582142      -1.16697008       0.00000000
Si      -1.82825928      -1.23346251      -1.75392048       0.00000000
Si      -1.04990679       0.55438128      -2.97366017       0.00000000
Si      -0.02520063       2.42183430       2.67824643       0.00000000
Si      -0.91854423      -1.34698752       3.48663705       0.00000000
Si      -0.82671750      -3.74485923       0.52477971       0.00000000
Si      -0.39534201       3.85629912       0.79727401       0.00000000
