10
Lattice="16.28999089631971 0.0 0.0 0.0 16.28999089631971 0.0 0.0 0.0 34.31052061344573" Properties=species:S:1:pos:R:3:initial_magmoms:R:1 pbc="T T T"
Si      -1.69442716      -1.61504436      -0.08629101       0.00000000
Si       2.31200712      -0.61080984      -0.14238874       0.00000000
Si      -0.80128881       0.08180838       2.26627977       0.00000000
Si       0.56615895       0.97748145      -2.36979467       0.00000000
Si       2.41945596      -0.44281107      -2.49729264       0.00000000
Si      -2.62484517       1.71100386       2.31036882       0.00000000
Si       0.96247836       0.85434534       3.74922389       0.00000000
Si      -0.88873353      -3.86612918      -0.45982985       0.00000000
Si       3.74738418       1.11418713       0.85378347       0.00000000
Si       2.13715026       2.45327400       2.42898966       0.00000000
