10
Lattice="16.28999089631971 0.0 0.0 0.0 16.28999089631971 0.0 0.0 0.0 34.31052061344573" Properties=species:S:1:pos:R:3:initial_magmoms:R:1 pbc="T T T"
Si      -0.19282473       2.02030209      -1.10932837       0.00000000
Si       1.74807990      -1.54943964      -0.44867893       0.00000000
Si      -1.87444143      -1.24330167      -0.87786947       0.00000000
Si      -0.45473535       1.08282888       2.12073446       0.00000000
Si       0.78139872      -3.29484798       1.00327449       0.00000000
Si      -3.38300946      -0.64984068       1.09769710       0.00000000
Si      -2.70350469       1.57605750       1.85125948       0.00000000
Si      -2.11452345       3.00198636      -0.03983454       0.00000000
Si      -1.03335615      -3.46315626      -0.74145076       0.00000000
Si       1.42118847      -2.13666156      -2.70785642       0.00000000
