10
Lattice="16.28999089631971 0.0 0.0 0.0 16.28999089631971 0.0 0.0 0.0 34.31052061344573" Properties=species:S:1:pos:R:3:initial_magmoms:R:1 pbc="T T T"
Si      -1.33718094      -1.36298430      -1.37722507       0.00000000
Si       1.37376828       1.35658233      -1.37187262       0.00000000
Si       1.38196215      -1.39916439       1.32092147       0.00000000
Si      -1.43119053       1.29490839       1.47439252       0.00000000
Si       0.25870149       2.55513537       2.53880839       0.00000000
Si      -2.70303228      -2.69809641      -0.01238610       0.00000000
Si      -2.71720458       2.71063971       0.01509664       0.00000000
Si      -2.69889462      -0.00340461      -2.73297174       0.00000000
Si       2.73202848       2.70822879      -0.01832183       0.00000000
Si       0.01497051       2.71168227      -2.73376088       0.00000000
