10
Lattice="16.28999089631971 0.0 0.0 0.0 16.28999089631971 0.0 0.0 0.0 34.31052061344573" Properties=species:S:1:pos:R:3:initial_magmoms:R:1 pbc="T T T"
Si       0.71684145       0.90157005      -2.16290212       0.00000000
Si      -0.83442267      -2.22850458       0.71595803       0.00000000
Si       2.14627266       0.47517930       1.19568800       0.00000000
Si      -1.22976468       1.62779454       1.51323205       0.00000000
Si      -1.88432946      -1.67412330      -2.25770214       0.00000000
Si       2.40673347       2.16179703      -1.09848624       0.00000000
Si      -0.85962330       0.19332972       3.39420446       0.00000000
Si       1.45876950      -0.08742843       3.44522423       0.00000000
Si       2.09798910       3.03593472       1.05899481       0.00000000
Si       1.21645575      -3.52919592       1.07738526       0.00000000
