10
Lattice="16.28999089631971 0.0 0.0 0.0 16.28999089631971 0.0 0.0 0.0 34.31052061344573" Properties=species:S:1:pos:R:3:initial_magmoms:R:1 pbc="T T T"
Si       1.23492861      -1.32321619       1.50291830       0.00000000
Si       1.50029271       1.18196493      -1.44584070       0.00000000
Si      -1.54678437      -1.37480662      -1.24773164       0.00000000
Si      -1.47523869       1.37933457       1.47930579       0.00000000
Si       2.75639832      -2.49498847       0.13928021       0.00000000
Si       2.58212790       2.68479888       0.03967671       0.00000000
Si       2.58251886       0.03704183       2.86519083       0.00000000
Si      -0.13121595      -2.68053157       2.86038736       0.00000000
Si      -2.85594651      -2.69783155       0.16819713       0.00000000
Si      -3.00967524       2.54131656       0.13902288       0.00000000
