10
Lattice="16.28999089631971 0.0 0.0 0.0 16.28999089631971 0.0 0.0 0.0 34.31052061344573" Properties=species:S:1:pos:R:3:initial_magmoms:R:1 pbc="T T T"
Si      -1.35428544       1.35418444       1.35327631       0.00000000
Si       1.34785089       1.35444508      -1.36493160       0.00000000
Si       1.35638980      -1.36010392       1.35317338       0.00000000
Si      -1.34759025      -1.36025802      -1.36227253       0.00000000
Si       0.17387946      -2.53203030      -2.72591063       0.00000000
Si      -2.71363707      -0.00218449       2.71156196       0.00000000
Si       0.00263898       2.71288447       2.71231679       0.00000000
Si       2.71600956      -0.00190919       2.71190506       0.00000000
Si       0.00192222      -2.71697067       2.71166489       0.00000000
Si       2.71527000       2.71523023      -0.00377416       0.00000000
