10
Lattice="16.28999089631971 0.0 0.0 0.0 16.28999089631971 0.0 0.0 0.0 34.31052061344573" Properties=species:S:1:pos:R:3:initial_magmoms:R:1 pbc="T T T"
Si      -1.34595223       1.34570061      -1.35876600       0.00000000
Si       1.35862827       1.35506736       1.35495753       0.00000000
Si      -1.35561220      -1.35814617       1.35567805       0.00000000
Si       1.35701882      -1.35580041      -1.36041290       0.00000000
Si       0.01857962       2.68643277      -2.73256687       0.00000000
Si       0.00068574       2.71448415       2.71197369       0.00000000
Si      -2.71437739      -0.00084708       2.71241972       0.00000000
Si       0.00063567      -2.71513575       2.71180213       0.00000000
Si       2.71526599      -0.00073305       2.71173351       0.00000000
Si       2.71551034       2.71241532      -0.00192139       0.00000000
