10
Lattice="16.28999089631971 0.0 0.0 0.0 16.28999089631971 0.0 0.0 0.0 34.31052061344573" Properties=species:S:1:pos:R:3:initial_magmoms:R:1 pbc="T T T"
Si       0.91799642       1.66152298      -1.31395643       0.00000000
Si      -1.22065857       1.58658899       1.32335752       0.00000000
Si      -1.76428845      -1.08006642      -1.23994860       0.00000000
Si       1.82422980      -1.04111524       1.34586523       0.00000000
Si      -0.01528002      -1.83215163       2.57425118       0.00000000
Si      -1.73037267      -0.16693178       2.86348903       0.00000000
Si       2.18405147       0.21599400      -2.60657171       0.00000000
Si       2.15878894       2.90897861       0.21831796       0.00000000
Si      -0.54418374      -2.50665537      -2.60907638       0.00000000
Si       0.39126951       3.24711013       1.74074524       0.00000000
