10
Lattice="16.28999089631971 0.0 0.0 0.0 16.28999089631971 0.0 0.0 0.0 34.31052061344573" Properties=species:S:1:pos:R:3:initial_magmoms:R:1 pbc="T T T"
Si      -0.00760743       0.53272372       2.32011301       0.00000000
Si       0.50971410       1.75352076      -1.54013151       0.00000000
Si      -1.59588243      -1.61867933      -0.75795413       0.00000000
Si       1.71509265      -1.66521986      -0.28923785       0.00000000
Si       1.73037267       0.16693178      -2.86348903       0.00000000
Si      -1.70349417      -0.88117204       3.15403068       0.00000000
Si       2.78860758      -1.79672903       1.78160909       0.00000000
Si       2.11115142       0.01173043       3.18628259       0.00000000
Si      -3.81407544      -0.83110586      -0.38235666       0.00000000
Si       3.55460247      -0.87418346      -1.51762380       0.00000000
