10
Lattice="16.28999089631971 0.0 0.0 0.0 16.28999089631971 0.0 0.0 0.0 34.31052061344573" Properties=species:S:1:pos:R:3:initial_magmoms:R:1 pbc="T T T"
Si      -1.35298224       1.35576783       1.36545655       0.00000000
Si       1.36360332      -1.36129014       1.36233429       0.00000000
Si      -1.33986879      -1.37318184      -1.37682706       0.00000000
Si       1.36480878       1.37039625      -1.39052726       0.00000000
Si      -2.70627399       2.70702333       0.00298502       0.00000000
Si      -2.70800073      -2.72032086       0.00723952       0.00000000
Si      -2.71039536      -0.00236205       2.72048270       0.00000000
Si       2.73018771       2.70125667       0.00693073       0.00000000
Si       2.71788876      -2.71547458       0.00905798       0.00000000
Si       0.00421911       2.71248048       2.72110029       0.00000000
