10
Lattice="16.28999089631971 0.0 0.0 0.0 16.28999089631971 0.0 0.0 0.0 34.31052061344573" Properties=species:S:1:pos:R:3:initial_magmoms:R:1 pbc="T T T"
Si      -1.51285230       1.89169254       0.24223241       0.00000000
Si      -0.80791884      -0.38074617      -2.44452303       0.00000000
Si       0.49573728      -1.24695063       2.24068411       0.00000000
Si       2.11874812       1.54963512      -0.34609041       0.00000000
Si       0.59497596      -3.18831138      -0.89159369       0.00000000
Si       1.42825411      -3.18399453       1.26424046       0.00000000
Si      -1.19156463       2.46808161       2.50425768       0.00000000
Si       2.51689689      -0.16622316       2.98230643       0.00000000
Si       1.80496525       2.37382767      -2.53300991       0.00000000
Si       0.93630033       0.53577810      -3.81828273       0.00000000
