10
Lattice="16.28999089631971 0.0 0.0 0.0 16.28999089631971 0.0 0.0 0.0 34.31052061344573" Properties=species:S:1:pos:R:3:initial_magmoms:R:1 pbc="T T T"
Si       0.52608555       0.14002884       2.30491344       0.00000000
Si       0.29015748       2.29599405      -0.60002272       0.00000000
Si       1.84435773      -0.99355968      -1.15760330       0.00000000
Si      -1.84391397      -1.56478482      -0.32862635       0.00000000
Si       1.48408630      -1.99632321       2.59078886       0.00000000
Si      -1.60195860       0.41958153       3.26595166       0.00000000
Si      -1.37761272      -3.23023532       1.30983917       0.00000000
Si       2.54278496       2.47977783      -1.24989865       0.00000000
Si       3.77037656      -0.50440356       0.07387059       0.00000000
Si      -0.79716744       2.65224006      -2.67323709       0.00000000
