10
Lattice="16.28999089631971 0.0 0.0 0.0 16.28999089631971 0.0 0.0 0.0 34.31052061344573" Properties=species:S:1:pos:R:3:initial_magmoms:R:1 pbc="T T T"
Si       2.21776947       0.14988429       0.81607619       0.00000000
Si      -0.89844237      -2.05731297       0.78272634       0.00000000
Si      -0.23196960      -0.39560265      -2.37157882       0.00000000
Si      -1.26804618       2.13464160      -0.04100110       0.00000000
Si      -0.78763779      -2.68398927      -2.49684660       0.00000000
Si       3.31739075       1.88211402      -0.26847997       0.00000000
Si      -0.03650589      -3.83315103      -0.57411826       0.00000000
Si       1.89607455      -0.67515534      -3.33261704       0.00000000
Si      -1.21650462       3.07740906       2.27959226       0.00000000
Si      -3.24104211      -2.35916667       0.59841012       0.00000000
