10
Lattice="16.28999089631971 0.0 0.0 0.0 16.28999089631971 0.0 0.0 0.0 34.31052061344573" Properties=species:S:1:pos:R:3:initial_magmoms:R:1 pbc="T T T"
Si       1.35648459       1.35803214       1.35969238       0.00000000
Si      -1.35816246      -1.35736425       1.36048152       0.00000000
Si      -1.36814823       1.36656810      -1.34788956       0.00000000
Si       1.36780614      -1.36858806      -1.35368804       0.00000000
Si      -0.00664632       2.72855871      -2.69544287       0.00000000
Si       2.71375837      -2.71428867       0.00507796       0.00000000
Si      -2.71476108       2.71461447       0.00535244       0.00000000
Si      -2.71536381      -2.71407690       0.00483779       0.00000000
Si       2.71443134       2.71534752       0.00099501       0.00000000
Si       2.71444411       0.00019548       2.71705165       0.00000000
