10
Lattice="16.28999089631971 0.0 0.0 0.0 16.28999089631971 0.0 0.0 0.0 34.31052061344573" Properties=species:S:1:pos:R:3:initial_magmoms:R:1 pbc="T T T"
Si      -1.35268902       1.35417141       1.35794254       0.00000000
Si      -1.35669636      -1.35682668      -1.35588391       0.00000000
Si       1.35773892      -1.35368271       1.35945221       0.00000000
Si       1.35796698       1.35725022      -1.35598684       0.00000000
Si       2.72119563      -0.00939933       2.70583210       0.00000000
Si       0.00024435      -2.71440270      -2.71283145       0.00000000
Si      -2.71435383       0.00122175      -2.71307162       0.00000000
Si      -2.71440270       2.71375110       0.00219587       0.00000000
Si      -0.00043983       2.71551042      -2.71286576       0.00000000
Si       2.71489140       0.00099369      -2.71362059       0.00000000
