10
Lattice="16.28999089631971 0.0 0.0 0.0 16.28999089631971 0.0 0.0 0.0 34.31052061344573" Properties=species:S:1:pos:R:3:initial_magmoms:R:1 pbc="T T T"
Si      -2.26295793       0.40273767       0.47811737       0.00000000
Si      -0.32128767      -0.57638907      -2.26202527       0.00000000
Si       0.89127477      -0.50305149       2.13665455       0.00000000
Si       1.32229188       1.78375500      -0.82623211       0.00000000
Si       0.21569589       1.77526791      -2.96072510       0.00000000
Si      -0.18412587       1.34480466       3.20045284       0.00000000
Si      -2.57020362       2.47751352      -0.64483228       0.00000000
Si       1.19156463      -2.46808161      -2.50425768       0.00000000
Si      -2.47436955       1.13552703       2.72573221       0.00000000
Si      -3.52065996      -1.60347357       0.11717049       0.00000000
