10
Lattice="16.28999089631971 0.0 0.0 0.0 16.28999089631971 0.0 0.0 0.0 34.31052061344573" Properties=species:S:1:pos:R:3:initial_magmoms:R:1 pbc="T T T"
Si      -1.01626794      -2.07405909       0.24034533       0.00000000
Si       2.24860644      -0.45524034      -0.46881922       0.00000000
Si       0.32689143       0.58722192       2.25917749       0.00000000
Si      -1.00048293       1.67145174      -1.45277688       0.00000000
Si       2.65955427       1.89400572      -0.79566142       0.00000000
Si      -2.45454462      -1.32649470       1.96640566       0.00000000
Si       1.01397105       2.77808031      -2.19597748       0.00000000
Si      -1.42118847       2.13666156       2.70785642       0.00000000
Si      -1.90402407      -2.62343934      -1.87208598       0.00000000
Si       2.28840291      -1.81201815      -2.48542119       0.00000000
