10
Lattice="16.28999089631971 0.0 0.0 0.0 16.28999089631971 0.0 0.0 0.0 34.31052061344573" Properties=species:S:1:pos:R:3:initial_magmoms:R:1 pbc="T T T"
Si      -1.16923104       1.96195131       0.63369821       0.00000000
Si       0.22007790      -1.36376622       1.92702200       0.00000000
Si      -0.05154156      -0.94276746      -2.32059336       0.00000000
Si       2.18468448       0.41638869       2.10163520       0.00000000
Si      -2.95018416       0.79560360       1.75689662       0.00000000
Si      -1.50180768      -0.53955738       3.27045462       0.00000000
Si      -1.28767563       3.43490940      -1.20313339       0.00000000
Si       0.91513962       0.80264088      -3.77254678       0.00000000
Si       1.21650462      -3.07740906      -2.27959226       0.00000000
Si       0.02472822       3.58067232       1.89840358       0.00000000
