10
Lattice="16.28999089631971 0.0 0.0 0.0 16.28999089631971 0.0 0.0 0.0 34.31052061344573" Properties=species:S:1:pos:R:3:initial_magmoms:R:1 pbc="T T T"
Si       1.68000399       0.05901867      -1.57427050       0.00000000
Si      -1.95036912       0.51893424      -1.16566628       0.00000000
Si       0.69599025       1.33848414       1.80192093       0.00000000
Si      -0.19943847      -2.13571674       0.98309990       0.00000000
Si       3.32347995      -0.63578241      -0.07685561       0.00000000
Si      -2.48968215      -2.34499437       0.50837927       0.00000000
Si      -3.50896374      -0.17715375       0.45066894       0.00000000
Si       3.00042156       0.77294421       1.80085730       0.00000000
Si       1.30697928      -1.69676640      -3.04358505       0.00000000
Si      -2.05390836       2.85786256      -1.33642984       0.00000000
