10
Lattice="16.28999089631971 0.0 0.0 0.0 16.28999089631971 0.0 0.0 0.0 34.31052061344573" Properties=species:S:1:pos:R:3:initial_magmoms:R:1 pbc="T T T"
Si      -1.34855950      -1.34231229       1.38029586       0.00000000
Si      -1.51133244       1.14875451      -1.41954026       0.00000000
Si       1.36581876       1.37182977       1.38362398       0.00000000
Si       1.32172173      -1.57224564      -1.44888606       0.00000000
Si       0.01571985       2.24482716      -2.95838996       0.00000000
Si      -2.69519172      -0.79138449      -2.45514042       0.00000000
Si       2.71150308       2.70739800       0.01585147       0.00000000
Si      -2.69339579      -2.72810259       0.01208760       0.00000000
Si      -2.70349559       2.72458395       0.01339827       0.00000000
Si       2.72818404      -2.70749574       0.02779154       0.00000000
