10
Lattice="16.28999089631971 0.0 0.0 0.0 16.28999089631971 0.0 0.0 0.0 34.31052061344573" Properties=species:S:1:pos:R:3:initial_magmoms:R:1 pbc="T T T"
Si       1.37311668       1.34442999       1.34819835       0.00000000
Si      -1.35438318       1.35716877      -1.35629564       0.00000000
Si       1.35760860      -1.35677781      -1.35581529       0.00000000
Si      -1.34945708      -1.36570473       1.36120205       0.00000000
Si       0.06919992       2.68141545       2.70150897       0.00000000
Si      -2.71099368       2.71085352       0.00415158       0.00000000
Si      -2.71370904      -0.00071676      -2.71300300       0.00000000
Si       0.00149868       2.71385329      -2.71327749       0.00000000
Si      -2.71080980      -2.71811682      -0.00044604       0.00000000
Si       0.00071676      -2.71573848      -2.71324318       0.00000000
