10
Lattice="16.28999089631971 0.0 0.0 0.0 16.28999089631971 0.0 0.0 0.0 34.31052061344573" Properties=species:S:1:pos:R:3:initial_magmoms:R:1 pbc="T T T"
Si      -1.36135271      -1.35241209      -1.36164808       0.00000000
Si       1.34945708       1.36570473      -1.36120205       0.00000000
Si      -1.38259487       1.31548266       1.37818576       0.00000000
Si       1.32868733      -1.26257274       1.54462619       0.00000000
Si       0.38828192       2.35400274       2.59596975       0.00000000
Si      -2.31627251      -0.51474771       2.63830896       0.00000000
Si      -0.57563647      -2.25670257       2.70696435       0.00000000
Si       2.03181260       0.57752937       2.89086884       0.00000000
Si       2.71434731      -2.70461241       0.04089816       0.00000000
Si       2.70706568       0.00892692      -2.71701734       0.00000000
