10
Lattice="10.86 0.0 0.0 0.0 10.86 0.0 0.0 0.0 10.86" Properties=species:S:1:pos:R:3:initial_magmoms:R:1 pbc="T T T"
Si       0.89621064       1.67214678      -1.17159852       0.00000000
Si       1.14841242      -1.36460244       1.46413434       0.00000000
Si      -1.42138938       1.30285248       1.36354902       0.00000000
Si       2.52074718      -2.74264956       0.09289644       0.00000000
Si       2.52074718      -0.02764956       2.80789644       0.00000000
Si      -0.19425282      -2.74264956      -2.62210356       0.00000000
Si      -0.23325108       2.68120368      -2.74469124       0.00000000
Si      -0.19425282       2.68735044       2.80789644       0.00000000
Si      -2.90925282      -0.02764956      -2.62210356       0.00000000
Si      -0.19425282      -2.74264956       2.80789644       0.00000000
