10
Lattice="10.86 0.0 0.0 0.0 10.86 0.0 0.0 0.0 10.86" Properties=species:S:1:pos:R:3:initial_magmoms:R:1 pbc="T T T"
Si      -1.14096246       1.41830514      -1.43438880       0.00000000
Si       1.57403754       1.41830514       1.28061120       0.00000000
Si       1.57403754      -1.29669486      -1.43438880       0.00000000
Si      -2.40229716      -2.70800616      -0.10644972       0.00000000
Si      -2.48124936       2.70151188      -0.18471774       0.00000000
Si       0.00456120      -2.71339272       2.53306242       0.00000000
Si      -2.49846246       0.06080514      -2.79188880       0.00000000
Si       0.35077800       2.67203784       2.74850310       0.00000000
Si       0.21653754      -2.65419486      -2.79188880       0.00000000
Si      -2.76549900       0.40310148       2.73111624       0.00000000
