10
Lattice="10.86 0.0 0.0 0.0 10.86 0.0 0.0 0.0 10.86" Properties=species:S:1:pos:R:3:initial_magmoms:R:1 pbc="T T T"
Si      -1.24063554      -1.27184718       1.40942166       0.00000000
Si      -1.24063554       1.44315282      -1.30557834       0.00000000
Si       1.47436446       1.44315282       1.40942166       0.00000000
Si      -2.59813554      -2.62934718       0.05192166       0.00000000
Si      -2.59813554       0.08565282      -2.66307834       0.00000000
Si      -2.59813554       0.08565282       2.76692166       0.00000000
Si       2.75980836      -2.60528142       0.09855450       0.00000000
Si       0.18384894       2.82018996      -2.55272988       0.00000000
Si       0.11686446      -2.62934718       2.76692166       0.00000000
Si      -2.59813554       2.80065282       0.05192166       0.00000000
