10
Lattice="16.28999089631971 0.0 0.0 0.0 16.28999089631971 0.0 0.0 0.0 34.54679606040008" Properties=species:S:1:pos:R:3:initial_magmoms:R:1 pbc="T T T"
Si      -1.00227713      -1.03445245      -1.88321600       0.00000000
Si       2.22301974      -0.73673641       0.44026462       0.00000000
Si      -0.03158468       2.35620420      -0.45677799       0.00000000
Si      -1.46292575      -0.34667236       1.87181555       0.00000000
Si      -3.14900591      -0.10282735      -1.45718467       0.00000000
Si      -1.18267259       1.77375525       2.88925381       0.00000000
Si       1.99065918      -3.03484816      -0.07990678       0.00000000
Si      -3.49472858      -1.00421821       0.70168037       0.00000000
Si       1.29571149       3.28571160       1.28887259       0.00000000
Si       2.95168773      -0.06861835       2.63961852       0.00000000
