10
Lattice="16.28999089631971 0.0 0.0 0.0 16.28999089631971 0.0 0.0 0.0 34.54679606040008" Properties=species:S:1:pos:R:3:initial_magmoms:R:1 pbc="T T T"
Si       1.53503928      -1.64465469      -0.46462012       0.00000000
Si      -0.58137381       0.65663361      -2.13495864       0.00000000
Si       1.22289030       1.60718769       1.19169240       0.00000000
Si      -1.99901106      -0.57629133       1.09299214       0.00000000
Si       2.09709315       0.08573427       2.73973519       0.00000000
Si      -2.70076145       1.66521267       1.45469730       0.00000000
Si      -0.65322900       2.61501741       2.22633497       0.00000000
Si       2.79033039      -1.76466312       1.47763639       0.00000000
Si      -2.17306971      -0.93672387      -2.75721588       0.00000000
Si       2.83380840      -0.67639338      -2.22077293       0.00000000
