10
Lattice="16.28999089631971 0.0 0.0 0.0 16.28999089631971 0.0 0.0 0.0 34.54679606040008" Properties=species:S:1:pos:R:3:initial_magmoms:R:1 pbc="T T T"
Si      -1.82583207      -0.77866200       1.20122732       0.00000000
Si      -0.87420285       1.52145342      -1.54804280       0.00000000
Si       0.69323724      -1.85039739      -1.26209881       0.00000000
Si       1.17543753       0.90086958       1.83892698       0.00000000
Si      -2.09709315      -0.08573427      -2.73973519       0.00000000
Si      -2.86559019       1.38031686       1.56973820       0.00000000
Si      -0.61248771      -2.04113700       2.84886858       0.00000000
Si       2.82913317      -1.27381284      -1.91586274       0.00000000
Si      -0.56205387      -1.73038896      -3.20435531       0.00000000
Si       1.06398135       2.31751314      -2.68497849       0.00000000
