10
Lattice="16.28999089631971 0.0 0.0 0.0 16.28999089631971 0.0 0.0 0.0 34.54679606040008" Properties=species:S:1:pos:R:3:initial_magmoms:R:1 pbc="T T T"
Si      -0.96705585      -1.86966846      -0.97314924       0.00000000
Si       1.50135156      -0.61851501       1.66667656       0.00000000
Si       0.82086939       1.07233812      -1.98309084       0.00000000
Si      -2.06597925       0.89218701       0.84536057       0.00000000
Si      -2.18040021      -0.60719346      -2.62079051       0.00000000
Si      -2.10799116       2.75920020      -0.63928882       0.00000000
Si       0.04976595       3.25062063      -1.60656510       0.00000000
Si      -2.45074905      -2.84091410       0.52431702       0.00000000
Si      -0.35456814       0.17146854      -3.82201782       0.00000000
Si       3.68860986      -0.79154739       0.79499132       0.00000000
