10
Lattice="16.28999089631971 0.0 0.0 0.0 16.28999089631971 0.0 0.0 0.0 34.54679606040008" Properties=species:S:1:pos:R:3:initial_magmoms:R:1 pbc="T T T"
Si       1.35664749      -1.35708732       1.35751711       0.00000000
Si       1.35694071       1.35782037      -1.35706800       0.00000000
Si      -1.35757602       1.35725022       1.35765530       0.00000000
Si      -1.35819504      -1.35975888      -1.35703345       0.00000000
Si      -2.71443528       0.00052128       2.71482694       0.00000000
Si       2.71472850      -2.71463076      -0.00020728       0.00000000
Si      -2.71494027       2.71474479       0.00003455       0.00000000
Si       2.71472850       2.71541268       0.00006909       0.00000000
Si      -0.00003258       2.71606428       2.71427419       0.00000000
Si       0.00226431      -2.71621089      -2.71413600       0.00000000
