10
Lattice="16.28999089631971 0.0 0.0 0.0 16.28999089631971 0.0 0.0 0.0 34.54679606040008" Properties=species:S:1:pos:R:3:initial_magmoms:R:1 pbc="T T T"
Si       1.35716877       1.35739683      -1.35689527       0.00000000
Si      -1.35749457       1.35738054       1.35737892       0.00000000
Si       1.35736425      -1.35749457       1.35762075       0.00000000
Si      -1.36037790      -1.35711990      -1.35803531       0.00000000
Si      -2.71096388      -0.00122175      -2.71513786       0.00000000
Si      -2.71381952       0.00068418       2.71375599       0.00000000
Si       0.00050499      -2.71422351       2.71479239       0.00000000
Si       0.00410508       2.71078632      -2.71828162       0.00000000
Si       2.71490769       0.00131949       2.71423964       0.00000000
Si      -0.00068418       2.71450044       2.71499967       0.00000000
