10
Lattice="16.28999089631971 0.0 0.0 0.0 16.28999089631971 0.0 0.0 0.0 34.54679606040008" Properties=species:S:1:pos:R:3:initial_magmoms:R:1 pbc="T T T"
Si       1.23188238      -1.39628106       1.42778533       0.00000000
Si      -1.34811153      -1.36951659      -1.35841533       0.00000000
Si       1.37350764       1.34405532      -1.36062632       0.00000000
Si      -1.37819916       1.32862869       1.42830353       0.00000000
Si       0.01088172       2.70259245      -2.71793615       0.00000000
Si      -2.69340163      -2.72769534       0.01219503       0.00000000
Si      -2.70225362      -0.01122381      -2.71917984       0.00000000
Si       2.73566115       2.68710066       0.00525112       0.00000000
Si      -2.71504941       2.71500543       0.03119577       0.00000000
Si       2.71425609      -2.72155401       0.01126226       0.00000000
