10
Lattice="16.28999089631971 0.0 0.0 0.0 16.28999089631971 0.0 0.0 0.0 34.54679606040008" Properties=species:S:1:pos:R:3:initial_magmoms:R:1 pbc="T T T"
Si      -1.26351756       1.94116527      -0.03630870       0.00000000
Si      -0.40441554      -1.74263904       1.48015830       0.00000000
Si       0.49213719      -0.26668359      -2.27193677       0.00000000
Si       2.10333222       0.80430246       0.75712801       0.00000000
Si       0.27015336       3.46121775      -0.99809204       0.00000000
Si       0.36579195       2.06597925      -2.95316542       0.00000000
Si       3.54729411      -0.68952312      -0.36474528       0.00000000
Si      -2.47456503      -2.69162928       0.72306485       0.00000000
Si       2.68861563      -1.14170094      -2.46999366       0.00000000
Si       1.09402011      -3.53447388       1.06818753       0.00000000
