10
Lattice="16.28999089631971 0.0 0.0 0.0 16.28999089631971 0.0 0.0 0.0 34.54679606040008" Properties=species:S:1:pos:R:3:initial_magmoms:R:1 pbc="T T T"
Si       1.35363384      -1.35856971       1.35900262       0.00000000
Si      -1.35923760       1.35672909       1.35813895       0.00000000
Si       1.35016407       1.34123375      -1.39247503       0.00000000
Si      -1.35044100      -1.35892809      -1.38018673       0.00000000
Si      -0.13809033       2.61465318      -2.77083424       0.00000000
Si       2.71303434      -2.71322982      -0.00027637       0.00000000
Si       2.71132389       2.71496375      -0.00518202       0.00000000
Si       2.71210581       0.00022806       2.71537969       0.00000000
Si      -2.71502172       2.71379738      -0.00248737       0.00000000
Si      -0.00208512      -2.71482624       2.71572516       0.00000000
