10
Lattice="16.28999089631971 0.0 0.0 0.0 16.28999089631971 0.0 0.0 0.0 34.54679606040008" Properties=species:S:1:pos:R:3:initial_magmoms:R:1 pbc="T T T"
Si       1.35728280      -1.35741312       1.35724074       0.00000000
Si       1.35778779       1.35650103      -1.35772439       0.00000000
Si      -1.35822762       1.35765686       1.35734438       0.00000000
Si      -1.35900954      -1.35773892      -1.35800077       0.00000000
Si      -0.00104256       2.71305130       2.71396327       0.00000000
Si      -2.71626953       0.00588069      -2.71292686       0.00000000
Si      -2.71510643      -0.00008145       2.71434328       0.00000000
Si       2.71464705       2.71485949      -0.00020728       0.00000000
Si       2.71528236      -0.00138465       2.71437783       0.00000000
Si       2.71494027      -2.71505430      -0.00013819       0.00000000
