10
Lattice="16.28999089631971 0.0 0.0 0.0 16.28999089631971 0.0 0.0 0.0 34.54679606040008" Properties=species:S:1:pos:R:3:initial_magmoms:R:1 pbc="T T T"
Si       1.35729909      -1.35374787       1.35496065       0.00000000
Si      -1.35799956      -1.35602847      -1.35713709       0.00000000
Si       1.35684297       1.35859912      -1.35686072       0.00000000
Si      -1.36000323       1.36146933       1.36238821       0.00000000
Si       2.69749368      -0.00149868       2.70729573       0.00000000
Si       2.71417464      -2.71342530       0.00027637       0.00000000
Si      -0.00034209      -2.71366965      -2.71451602       0.00000000
Si       2.71384884       0.00138465      -2.71486149       0.00000000
Si      -2.71528236       0.00138465      -2.71437783       0.00000000
Si      -2.71611315      -2.71440270       0.00038001       0.00000000
