10
Lattice="16.28999089631971 0.0 0.0 0.0 16.28999089631971 0.0 0.0 0.0 34.54679606040008" Properties=species:S:1:pos:R:3:initial_magmoms:R:1 pbc="T T T"
Si       0.74402946      -0.18775854       2.21652367       0.00000000
Si       1.80571392       1.12537836      -0.99892117       0.00000000
Si      -0.57091563      -1.93868919      -1.22572101       0.00000000
Si      -2.05112277       1.22516571      -0.20544991       0.00000000
Si      -1.68686208       1.44699413      -2.60690269       0.00000000
Si      -0.82797183       1.29240806       3.20497716       0.00000000
Si       0.61258545       2.40808621      -2.66932878       0.00000000
Si      -1.35997065       3.39094988       0.29216242       0.00000000
Si      -2.10285981      -3.00996846       0.26210669       0.00000000
Si      -1.42969185      -0.77770089      -3.45253963       0.00000000
