10
Lattice="16.28999089631971 0.0 0.0 0.0 16.28999089631971 0.0 0.0 0.0 34.54679606040008" Properties=species:S:1:pos:R:3:initial_magmoms:R:1 pbc="T T T"
Si      -0.17466138      -2.20631760       0.72938691       0.00000000
Si      -0.74402946       0.18775854      -2.21652367       0.00000000
Si      -1.57200129       1.48016660       0.98845348       0.00000000
Si       2.11486554       0.60732378       1.01723098       0.00000000
Si      -1.61104842      -1.71800856       2.59387854       0.00000000
Si      -0.84870900       3.45869999       0.01789525       0.00000000
Si       1.06168446       1.31313690      -3.21544484       0.00000000
Si      -0.68820363       1.74557028       3.12120113       0.00000000
Si       1.50628743       2.34201234       2.58728010       0.00000000
Si       3.00688965      -1.26910503       2.17382381       0.00000000
