10
Lattice="16.28999089631971 0.0 0.0 0.0 16.28999089631971 0.0 0.0 0.0 34.54679606040008" Properties=species:S:1:pos:R:3:initial_magmoms:R:1 pbc="T T T"
Si       1.38632787       1.28705661       1.38235627       0.00000000
Si      -0.44507538      -2.14301466       0.85524096       0.00000000
Si       1.43638704      -0.48830904      -1.86449163       0.00000000
Si      -2.19921516       1.24445826      -0.03585959       0.00000000
Si       1.61104842       1.71800856      -2.59387854       0.00000000
Si       0.03904713       3.19817516      -1.60542506       0.00000000
Si      -2.19450735      -1.52590059       2.39378338       0.00000000
Si      -0.62742564      -3.33560556      -1.26531166       0.00000000
Si       0.92284479       3.46357884       0.52732259       0.00000000
Si       0.77442660       0.76250232       3.54757792       0.00000000
