10
Lattice="16.28999089631971 0.0 0.0 0.0 16.28999089631971 0.0 0.0 0.0 34.54679606040008" Properties=species:S:1:pos:R:3:initial_magmoms:R:1 pbc="T T T"
Si      -0.61190127      -0.52455429       2.16522165       0.00000000
Si      -1.38632787      -1.28705661      -1.38235627       0.00000000
Si      -0.46348308       2.17652223      -0.85503368       0.00000000
Si       2.24896482      -0.73179567       0.33810968       0.00000000
Si       1.73100798       2.77296429      -1.38895471       0.00000000
Si       0.92874177       0.92947482       3.32502734       0.00000000
Si       2.97409788       0.91212597       1.97998163       0.00000000
Si       0.05005917      -1.77536565      -3.24684790       0.00000000
Si       0.12707829      -2.77195527       2.49479827       0.00000000
Si      -2.99100690      -0.77667462       2.11436874       0.00000000
