10
Lattice="16.28999089631971 0.0 0.0 0.0 16.28999089631971 0.0 0.0 0.0 34.54679606040008" Properties=species:S:1:pos:R:3:initial_magmoms:R:1 pbc="T T T"
Si      -1.35664749       1.35708732      -1.35751711       0.00000000
Si       1.35814617       1.35650088       1.35810441       0.00000000
Si       1.35808101      -1.35754344      -1.35772439       0.00000000
Si      -1.35884664      -1.35843939       1.35751711       0.00000000
Si      -2.71422351       2.71433754       0.00013819       0.00000000
Si      -0.00073305      -2.71515204      -2.71347961       0.00000000
Si      -2.71399545       0.00014661       2.71506877       0.00000000
Si      -2.71484253      -0.00267156      -2.71455056       0.00000000
Si       0.00029322       2.71490769      -2.71458511       0.00000000
Si      -2.71430496      -2.71538010      -0.00017273       0.00000000
