10
Lattice="16.28999089631971 0.0 0.0 0.0 16.28999089631971 0.0 0.0 0.0 34.54679606040008" Properties=species:S:1:pos:R:3:initial_magmoms:R:1 pbc="T T T"
Si      -1.69399710       0.83553039      -1.38111258       0.00000000
Si      -0.72954765      -1.89534150       1.16978972       0.00000000
Si       2.06545797       0.10130751      -1.13127002       0.00000000
Si       0.31798080       1.63980027       1.70198341       0.00000000
Si      -3.04746804       1.81947897       0.31993806       0.00000000
Si       2.48451822       2.50230690      -0.78987839       0.00000000
Si       0.41580225      -1.77274296       3.15035864       0.00000000
Si      -0.32216733       0.46612206       3.62669013       0.00000000
Si      -1.33033914       3.26117655       1.23991975       0.00000000
Si      -0.58968171       2.33880417      -2.87975344       0.00000000
