10
Lattice="16.28999089631971 0.0 0.0 0.0 16.28999089631971 0.0 0.0 0.0 34.54679606040008" Properties=species:S:1:pos:R:3:initial_magmoms:R:1 pbc="T T T"
Si      -1.34655095      -1.33726239       1.36489631       0.00000000
Si      -1.33969123       1.17429723      -1.53475264       0.00000000
Si       1.36879983       1.37642355       1.35961065       0.00000000
Si       1.33033914      -1.44790407      -1.34423386       0.00000000
Si       0.55006443       1.83472641      -2.78256776       0.00000000
Si       2.36172420       0.19950363      -2.66203319       0.00000000
Si      -2.69803844      -2.69324199      -0.02575811       0.00000000
Si      -2.68496993       2.71137276      -0.00745175       0.00000000
Si       0.00866628      -2.69739594       2.72023697       0.00000000
Si      -2.70457774       0.01746288       2.72127337       0.00000000
