10
Lattice="16.28999089631971 0.0 0.0 0.0 16.28999089631971 0.0 0.0 0.0 34.54679606040008" Properties=species:S:1:pos:R:3:initial_magmoms:R:1 pbc="T T T"
Si      -1.33328763      -1.57714893      -1.11482573       0.00000000
Si       1.01608875       1.13743296      -1.83008300       0.00000000
Si      -1.40240610       1.16291052       1.62321667       0.00000000
Si       1.74091230      -1.41364620       0.97504932       0.00000000
Si       0.38581236      -2.33393346      -2.70943764       0.00000000
Si      -2.07394506      -0.65477655       3.00484745       0.00000000
Si       2.04620319      -0.64648494      -3.11422267       0.00000000
Si      -3.33915678      -0.53646228      -1.81090951       0.00000000
Si       1.56595770      -1.06666920       3.34198982       0.00000000
Si       2.88432369       2.40810183      -1.10363256       0.00000000
