10
Lattice="16.28999089631971 0.0 0.0 0.0 16.28999089631971 0.0 0.0 0.0 34.54679606040008" Properties=species:S:1:pos:R:3:initial_magmoms:R:1 pbc="T T T"
Si       1.88499735      -1.41740919      -0.19246031       0.00000000
Si      -1.63165527      -0.87741198      -1.50195734       0.00000000
Si       0.86178987       1.97501589       1.18208838       0.00000000
Si      -1.67211963      -1.05221997       1.73939761       0.00000000
Si       1.01990061       1.81094301      -1.63112789       0.00000000
Si      -1.39685121       2.90898675       1.33316161       0.00000000
Si      -0.21660813      -2.06733132      -2.98937048       0.00000000
Si       2.70902700      -1.50376248       2.07021791       0.00000000
Si       1.20700755      -3.27555150      -1.54251531       0.00000000
Si      -2.41803873      -2.97101744      -0.40392137       0.00000000
