10
Lattice="16.28999089631971 0.0 0.0 0.0 16.28999089631971 0.0 0.0 0.0 34.54679606040008" Properties=species:S:1:pos:R:3:initial_magmoms:R:1 pbc="T T T"
Si       1.41148845      -1.93524290       0.10809699       0.00000000
Si      -0.82402965       0.08635329      -2.26267822       0.00000000
Si       1.45533135       1.92098196       0.01046769       0.00000000
Si      -1.42770447       0.26337672       2.12773836       0.00000000
Si      -1.24328538      -2.01350006       2.59560588       0.00000000
Si       3.02737337       1.01460636       1.49145511       0.00000000
Si      -2.70902700       1.50376248      -2.07021791       0.00000000
Si       0.90344340      -2.94512516       2.16957455       0.00000000
Si       0.01050705       3.73658391       0.75785349       0.00000000
Si       1.77414620       2.53252485      -2.33166821       0.00000000
