10
Lattice="16.28999089631971 0.0 0.0 0.0 16.28999089631971 0.0 0.0 0.0 34.54679606040008" Properties=species:S:1:pos:R:3:initial_magmoms:R:1 pbc="T T T"
Si       2.04165732       1.01843451       0.12637225       0.00000000
Si       0.09373266      -2.28577112       0.41352538       0.00000000
Si      -1.88079453       1.06780950       0.88495122       0.00000000
Si       0.14302620       0.06498081      -2.34697245       0.00000000
Si      -3.19772700      -0.59869171      -0.14374930       0.00000000
Si      -2.23462962      -2.61688166       0.63683599       0.00000000
Si       3.05420300       0.26435412      -1.99874055       0.00000000
Si       1.57795433       3.30563196      -0.06094058       0.00000000
Si      -1.60982667       1.42982217      -3.14901131       0.00000000
Si       0.64623817      -3.44429963      -1.55460669       0.00000000
