10
Lattice="16.28999089631971 0.0 0.0 0.0 16.28999089631971 0.0 0.0 0.0 34.54679606040008" Properties=species:S:1:pos:R:3:initial_magmoms:R:1 pbc="T T T"
Si      -1.36316349      -1.36453185       1.33837817       0.00000000
Si      -1.35646830       1.35593073      -1.35917536       0.00000000
Si       1.35634354      -1.35966114      -1.35882989       0.00000000
Si       1.36833786       1.35456237       1.37109401       0.00000000
Si      -0.08325819       2.61166167       2.74595362       0.00000000
Si       2.71362797       2.71274112       0.00048366       0.00000000
Si      -2.71313208       2.71375110       0.00152006       0.00000000
Si       0.00094130       2.71300176      -2.71686520       0.00000000
Si      -2.71458189      -2.71595025      -0.00614933       0.00000000
Si      -2.71428867      -0.00215028      -2.71638155       0.00000000
