10
Lattice="16.28999089631971 0.0 0.0 0.0 16.28999089631971 0.0 0.0 0.0 34.54679606040008" Properties=species:S:1:pos:R:3:initial_magmoms:R:1 pbc="T T T"
Si       1.35646830      -1.35593073       1.35917536       0.00000000
Si       1.35740960       1.35707103      -1.35768984       0.00000000
Si      -1.35782037      -1.35808101      -1.35720619       0.00000000
Si      -1.35666378       1.35782037       1.36069542       0.00000000
Si      -0.00669519      -2.72046258       2.69755353       0.00000000
Si       2.71281184      -2.71559187       0.00034547       0.00000000
Si      -2.71347417      -2.71503801       0.00003455       0.00000000
Si      -0.00066789       2.71451673      -2.71448147       0.00000000
Si       2.71469007      -0.00066789      -2.71472330       0.00000000
Si      -0.00009774      -2.71541268      -2.71455056       0.00000000
