10
Lattice="16.28999089631971 0.0 0.0 0.0 16.28999089631971 0.0 0.0 0.0 34.54679606040008" Properties=species:S:1:pos:R:3:initial_magmoms:R:1 pbc="T T T"
Si      -0.45709740      -0.09457974       2.33111546       0.00000000
Si       1.44482430      -1.81560195      -0.74738580       0.00000000
Si      -1.85774418      -0.25780554      -1.64598302       0.00000000
Si       1.68372530       1.86753447       0.17463415       0.00000000
Si       0.08646732       0.52430994      -3.20722270       0.00000000
Si       1.68736448       0.90976392       3.00944218       0.00000000
Si       1.76363915      -1.20405906      -3.08952170       0.00000000
Si      -0.01050705      -3.73658391      -0.75785349       0.00000000
Si      -0.33244632      -2.32373592       3.09922935       0.00000000
Si       0.36984816       3.74590179       1.28728343       0.00000000
