10
Lattice="16.28999089631971 0.0 0.0 0.0 16.28999089631971 0.0 0.0 0.0 34.54679606040008" Properties=species:S:1:pos:R:3:initial_magmoms:R:1 pbc="T T T"
Si      -2.06545797      -0.10130751       1.13127002       0.00000000
Si       1.46535066      -1.47962070       1.24551633       0.00000000
Si      -0.04010598      -0.50427324      -2.37637179       0.00000000
Si       0.41906025       2.40099939       0.34139163       0.00000000
Si      -1.74747717       1.53849276       2.83325342       0.00000000
Si      -0.93603969       1.48071213      -3.34309532       0.00000000
Si      -3.75945507       0.73422288      -0.24984257       0.00000000
Si       2.29547277      -1.20531339      -2.86061450       0.00000000
Si       0.24410565       2.74797639       2.70833214       0.00000000
Si      -2.65513968       2.23749666      -1.74848342       0.00000000
