10
Lattice="16.28999089631971 0.0 0.0 0.0 16.28999089631971 0.0 0.0 0.0 34.54679606040008" Properties=species:S:1:pos:R:3:initial_magmoms:R:1 pbc="T T T"
Si       0.96809841      -2.09350935      -0.21215199       0.00000000
Si       1.78833249       1.63199736       0.02473552       0.00000000
Si      -1.95309932      -0.05512536       1.44143132       0.00000000
Si      -1.95673851       0.90264519      -1.39337670       0.00000000
Si      -0.42956730       1.69516998      -3.00104730       0.00000000
Si       1.73724705       2.22637059      -2.32182237       0.00000000
Si      -2.30299875       2.23293546       1.83087757       0.00000000
Si       1.54947222      -2.75014296       1.92280665       0.00000000
Si      -1.15128923      -1.08493029       3.37750395       0.00000000
Si      -0.62359749      -3.68686683      -0.83440923       0.00000000
