10
Lattice="16.28999089631971 0.0 0.0 0.0 16.28999089631971 0.0 0.0 0.0 34.54679606040008" Properties=species:S:1:pos:R:3:initial_magmoms:R:1 pbc="T T T"
Si      -1.66039083      -1.68744852       0.40478504       0.00000000
Si      -1.03011444       1.78391790       1.28413967       0.00000000
Si       2.39806719      -0.53299251      -0.15656617       0.00000000
Si      -0.83496024       0.30035502      -2.34113404       0.00000000
Si      -2.29638501      -1.48774941      -1.90176764       0.00000000
Si       3.16935386       1.51277085      -1.05502519       0.00000000
Si       1.80862983       3.23535690      -0.17729426       0.00000000
Si       0.83812050       3.05458677       2.01059011       0.00000000
Si      -2.04620319       0.64648494       3.11422267       0.00000000
Si      -2.67356367       2.66838345      -0.33914609       0.00000000
