10
Lattice="16.28999089631971 0.0 0.0 0.0 16.28999089631971 0.0 0.0 0.0 34.54679606040008" Properties=species:S:1:pos:R:3:initial_magmoms:R:1 pbc="T T T"
Si       0.77128667       2.04576336      -0.89845903       0.00000000
Si       0.96761690      -0.54807705       2.11160500       0.00000000
Si      -2.39806719       0.53299251       0.15656617       0.00000000
Si       1.31387714      -1.87836732      -1.11264928       0.00000000
Si       1.31751632      -2.83613787       1.72215875       0.00000000
Si      -0.58943736       3.76834941      -0.02072809       0.00000000
Si      -0.37085814       0.11337840       3.90510292       0.00000000
Si       2.92078790       2.62889649      -0.10975523       0.00000000
Si      -0.36984816      -3.74590179      -1.28728343       0.00000000
Si      -3.23302743       0.83334753      -2.18456787       0.00000000
