10
Lattice="16.28999089631971 0.0 0.0 0.0 16.28999089631971 0.0 0.0 0.0 34.54679606040008" Properties=species:S:1:pos:R:3:initial_magmoms:R:1 pbc="T T T"
Si      -1.64401938       0.09272268       1.66228912       0.00000000
Si      -0.06612111      -2.36669265      -0.40008667       0.00000000
Si      -1.05274125       1.09459026      -1.89112722       0.00000000
Si       2.14478117       0.86012829       0.76624836       0.00000000
Si       3.44208419       0.41650272      -1.14194498       0.00000000
Si      -0.62204994       1.28120850       3.38696978       0.00000000
Si       0.28573379       0.43313481      -3.68462514       0.00000000
Si      -3.38524119       0.74704311      -1.55039198       0.00000000
Si      -3.56019579       1.09402011       0.81654853       0.00000000
Si       1.09573775      -3.39754014       1.38670917       0.00000000
