10
Lattice="16.28999089631971 0.0 0.0 0.0 16.28999089631971 0.0 0.0 0.0 34.54679606040008" Properties=species:S:1:pos:R:3:initial_magmoms:R:1 pbc="T T T"
Si       1.91617641      -1.00129743       0.84574059       0.00000000
Si      -1.99158282      -1.20948363       0.12492128       0.00000000
Si      -0.35284140       1.98078255       1.29792385       0.00000000
Si       0.17495460      -0.34697700      -2.36694051       0.00000000
Si      -3.63990276       0.41189265      -0.33714237       0.00000000
Si       2.50745454       0.00057015      -2.70767575       0.00000000
Si       3.56019579      -1.09402011      -0.81654853       0.00000000
Si      -1.56595770       1.06666920      -3.34198982       0.00000000
Si      -2.64963366       1.96610526       1.98626915       0.00000000
Si       1.46359134      -2.94399396       2.00917369       0.00000000
