10
Lattice="16.28999089631971 0.0 0.0 0.0 16.28999089631971 0.0 0.0 0.0 34.54679606040008" Properties=species:S:1:pos:R:3:initial_magmoms:R:1 pbc="T T T"
Si      -1.35747828      -1.35694071       1.35841533       0.00000000
Si       1.35936792      -1.35782037      -1.35744802       0.00000000
Si       1.35765747       1.35896067       1.35838078       0.00000000
Si      -1.35866745       1.36155078      -1.36145545       0.00000000
Si       2.70969489       0.00762372      -2.70451817       0.00000000
Si      -0.00317655      -2.70915732      -2.70876052       0.00000000
Si       0.01511712       2.71485851      -2.70718518       0.00000000
Si      -2.71476108      -2.71437012       0.00203826       0.00000000
Si       2.71461447       2.71474479       0.00203826       0.00000000
Si      -2.71415835       2.71526965       0.00076003       0.00000000
