10
Lattice="16.28999089631971 0.0 0.0 0.0 16.28999089631971 0.0 0.0 0.0 34.54679606040008" Properties=species:S:1:pos:R:3:initial_magmoms:R:1 pbc="T T T"
Si      -1.30646656      -1.43407386      -1.18807880       0.00000000
Si      -1.31130006       1.40880807       1.27424201       0.00000000
Si       1.72307801       0.71534277      -1.37217118       0.00000000
Si       1.41397526      -1.34542368       1.25804646       0.00000000
Si       2.57247119       2.54112597      -0.10418974       0.00000000
Si      -2.66162703       0.04336398       2.62131216       0.00000000
Si       0.05640087      -2.67213015       2.62172673       0.00000000
Si       0.71124095       1.30927617      -3.45534971       0.00000000
Si       0.05124182       2.76526008       2.62417955       0.00000000
Si       2.77146983       0.03987792       2.61858297       0.00000000
