10
Lattice="16.28999089631971 0.0 0.0 0.0 16.28999089631971 0.0 0.0 0.0 34.54679606040008" Properties=species:S:1:pos:R:3:initial_magmoms:R:1 pbc="T T T"
Si      -0.95726719       1.21096602      -1.69953058       0.00000000
Si       2.16681435       0.53120061       0.67922494       0.00000000
Si      -1.52717121      -0.79252479       1.60767060       0.00000000
Si       1.96028973      -1.45485990      -1.35796622       0.00000000
Si       0.42956730      -1.69516998       3.00104730       0.00000000
Si      -2.15817155      -0.27934092      -2.99683259       0.00000000
Si       2.21789979      -0.06317262       3.02578282       0.00000000
Si       0.60862698       2.51988381      -2.95558370       0.00000000
Si      -2.84104835       1.08584253       2.72031988       0.00000000
Si       0.57384783      -2.89038357      -2.83577534       0.00000000
