10
Lattice="16.28999089631971 0.0 0.0 0.0 16.28999089631971 0.0 0.0 0.0 34.54679606040008" Properties=species:S:1:pos:R:3:initial_magmoms:R:1 pbc="T T T"
Si       1.35487188      -1.35983056      -1.36307915       0.00000000
Si      -1.36119403       1.35681039      -1.36207729       0.00000000
Si       1.34149779       1.37235105       1.37548145       0.00000000
Si      -1.36435429      -1.36660557       1.38733101       0.00000000
Si       2.71119357      -2.71279718      -0.00027637       0.00000000
Si       2.71336014       2.71513575      -0.00473291       0.00000000
Si       2.71305063      -0.00039096      -2.71997441       0.00000000
Si      -2.71841723      -2.71498489      -0.00259101       0.00000000
Si      -2.71753757       2.71647153      -0.00324740       0.00000000
Si      -0.00172674       2.71494027      -2.71942167       0.00000000
