10
Lattice="16.28999089631971 0.0 0.0 0.0 16.28999089631971 0.0 0.0 0.0 34.54679606040008" Properties=species:S:1:pos:R:3:initial_magmoms:R:1 pbc="T T T"
Si      -1.34400645      -1.36475991      -1.38581095       0.00000000
Si       1.37088495       1.35037584      -1.38588005       0.00000000
Si       1.29775914      -1.49817501       1.35226599       0.00000000
Si      -1.48626702       1.32893820       1.63496258       0.00000000
Si      -2.70466291       2.69656745       0.00172734       0.00000000
Si      -2.71115610      -2.71308321       0.00124369       0.00000000
Si       2.72850984       2.71007186      -0.00424926       0.00000000
Si      -2.69950061      -0.00979029      -2.74830280       0.00000000
Si       0.01456326       2.70334246      -2.74868282       0.00000000
Si       0.01477503      -2.72549619      -2.74788824       0.00000000
