10
Lattice="10.86 0.0 0.0 0.0 10.86 0.0 0.0 0.0 10.86" Properties=species:S:1:pos:R:3:initial_magmoms:R:1 pbc="T T T"
Si       0.17634468      -0.69013128      -2.29179666       0.00000000
Si      -1.90482228       0.41567736       1.46406918       0.00000000
Si       0.45071172      -2.05676454       1.26293112       0.00000000
Si      -0.19322112       1.42515780      -2.16802524       0.00000000
Si       1.81628070      -0.79723260       2.74146582       0.00000000
Si      -0.89871930       1.91776740       2.74146582       0.00000000
Si       3.45545652       0.43072932       1.47998994       0.00000000
Si       0.46971672       3.42257244       1.58561430       0.00000000
Si       1.81628070      -3.51223260       0.02646582       0.00000000
Si      -3.61371930       1.91776740       0.02646582       0.00000000
