10
Lattice="10.86 0.0 0.0 0.0 10.86 0.0 0.0 0.0 10.86" Properties=species:S:1:pos:R:3:initial_magmoms:R:1 pbc="T T T"
Si       0.36956580      -2.11528908      -0.12377142       0.00000000
Si      -1.77569688      -0.65044884      -1.74358386       0.00000000
Si       0.70987476       1.70090406      -1.80471480       0.00000000
Si       0.19322112      -1.42515780       2.16802524       0.00000000
Si      -1.94858808       1.70446614       0.62352690       0.00000000
Si       3.17121774      -1.12023072      -1.53774342       0.00000000
Si       2.00950182       3.20760960      -0.52050894       0.00000000
Si       2.00950182       0.49260960      -3.23550894       0.00000000
Si       3.18019896       1.93784754       0.94144254       0.00000000
Si      -0.70549818       3.20760960       2.19449106       0.00000000
