10
Lattice="10.86 0.0 0.0 0.0 10.86 0.0 0.0 0.0 10.86" Properties=species:S:1:pos:R:3:initial_magmoms:R:1 pbc="T T T"
Si       1.29962706      -1.20829446      -1.43079414       0.00000000
Si       1.29962706       1.50670554       1.28420586       0.00000000
Si      -1.41537294       1.50670554      -1.43079414       0.00000000
Si      -0.70987476      -1.70090406       1.80471480       0.00000000
Si      -2.48557164      -2.35135290       0.06113094       0.00000000
Si      -2.65846284       0.00356208       2.42824170       0.00000000
Si       2.47032420       0.23694348       2.74615734       0.00000000
Si       2.46134298      -2.82113478       0.26697138       0.00000000
Si      -0.05787294      -2.56579446      -2.78829414       0.00000000
Si       2.65712706       0.14920554      -2.78829414       0.00000000
