10
Lattice="10.86 0.0 0.0 0.0 10.86 0.0 0.0 0.0 10.86" Properties=species:S:1:pos:R:3:initial_magmoms:R:1 pbc="T T T"
Si       1.28784396      -1.09992252       1.41482994       0.00000000
Si      -1.54049100       1.15332114       1.11241152       0.00000000
Si      -1.35750000      -1.35750000      -1.35750000       0.00000000
Si       1.35750000       1.35750000      -1.35750000       0.00000000
Si       0.40804278       3.12370524       0.83085516       0.00000000
Si       0.20071452       1.66430586       2.88397074       0.00000000
Si       2.71500000       0.00000000      -2.71500000       0.00000000
Si       0.00000000      -2.71500000      -2.71500000       0.00000000
Si      -2.71500000       0.00000000      -2.71500000       0.00000000
Si       0.00000000      -2.71500000       2.71500000       0.00000000
