10
Lattice="16.290000149 0.0 0.0 0.0 16.290000149 0.0 0.0 0.0 29.1751946751" Properties=species:S:1:pos:R:3:initial_magmoms:R:1 pbc="T T T"
Si      -1.34312680      -1.37902996       1.31288376       0.00000000
Si       1.30339549      -1.34684092      -1.43136423       0.00000000
Si       1.23066064       1.43270877       1.42669619       0.00000000
Si      -1.40162419       1.34057253      -1.36000170       0.00000000
Si       0.20225664      -2.70223409       2.49967233       0.00000000
Si       2.64194480       2.71712315       0.04481310       0.00000000
Si      -2.70801704      -0.00873144       2.65535117       0.00000000
Si      -0.28940814       2.75077830       2.62328763       0.00000000
Si       2.65553066       0.00835677      -2.76750062       0.00000000
Si      -0.06783156       2.70427034      -2.73036059       0.00000000
