10
Lattice="16.290000149 0.0 0.0 0.0 16.290000149 0.0 0.0 0.0 29.1751946751" Properties=species:S:1:pos:R:3:initial_magmoms:R:1 pbc="T T T"
Si       1.08159085      -1.42071607      -1.49837965       0.00000000
Si      -1.54538344       1.32320413      -1.18678857       0.00000000
Si      -1.05624361      -1.76292011       1.18057425       0.00000000
Si       2.12794643       0.96966226       0.68024884       0.00000000
Si       0.22041999       0.80703919       3.38534371       0.00000000
Si       2.37710198      -2.71425611      -0.07209191       0.00000000
Si      -0.20225664       2.70223409      -2.49967233       0.00000000
Si      -1.40157532      -0.88014871       3.31561500       0.00000000
Si       2.49640994      -0.09469377      -2.73742099       0.00000000
Si       0.54566613      -3.53905140       1.09208589       0.00000000
