10
Lattice="16.290000149 0.0 0.0 0.0 16.290000149 0.0 0.0 0.0 29.1751946751" Properties=species:S:1:pos:R:3:initial_magmoms:R:1 pbc="T T T"
Si      -1.39098682       1.43433451      -1.22296581       0.00000000
Si      -1.32778162      -1.38046348       1.37521365       0.00000000
Si       1.20075220      -1.46961865      -1.43180185       0.00000000
Si       1.30753315       1.43905861       1.37687080       0.00000000
H        3.24592914       1.73043785      -0.50703571       0.00000000
Si       0.01989009       2.66375711      -2.63659152       0.00000000
Si       2.67556736      -2.67796199       0.01870130       0.00000000
Si       2.53377920      -0.14048496      -2.83016893       0.00000000
Si      -2.89440723       0.15198570      -2.51320962       0.00000000
Si       2.73600327       0.07120359       2.70734720       0.00000000
