10
Lattice="16.290000149 0.0 0.0 0.0 16.290000149 0.0 0.0 0.0 29.1751946751" Properties=species:S:1:pos:R:3:initial_magmoms:R:1 pbc="T T T"
Si       1.35523027       1.36860436       1.33724505       0.00000000
Si      -1.32905713       1.35984034      -1.37385992       0.00000000
Si       1.38373777      -1.35444835      -1.33540701       0.00000000
Si      -1.34805453      -1.35310280       1.37628146       0.00000000
Si       2.71034651       0.00268785       2.67481102       0.00000000
Si      -2.70006752      -0.00936675      -2.69768438       0.00000000
Si       0.05791095      -2.69091254       2.70923775       0.00000000
Si       0.02652012      -2.71787249      -2.68420544       0.00000000
Si      -2.69379587       2.70881525      -0.02094779       0.00000000
Si      -0.02220327       2.71438643       2.69532118       0.00000000
