10
Lattice="16.290000149 0.0 0.0 0.0 16.290000149 0.0 0.0 0.0 29.1751946751" Properties=species:S:1:pos:R:3:initial_magmoms:R:1 pbc="T T T"
Si       0.43284159      -0.25456383       2.28435764       0.00000000
Si      -1.70478110       1.64856431       0.10033349       0.00000000
Si      -0.04639392      -2.29588004      -0.66615722       0.00000000
Si       1.86665483       0.90065782      -1.27819445       0.00000000
H       -0.91342918       0.16987212      -2.54807398       0.00000000
Si       2.16003773      -2.67760361       0.14158722       0.00000000
Si      -0.32189040       3.38419866      -0.81512576       0.00000000
Si       2.06998661      -1.98816194       2.36956847       0.00000000
Si       3.45637965       1.71766649       0.28434145       0.00000000
Si      -3.75492648       0.67640968      -0.65162797       0.00000000
