10
Lattice="16.290000149 0.0 0.0 0.0 16.290000149 0.0 0.0 0.0 29.1751946751" Properties=species:S:1:pos:R:3:initial_magmoms:R:1 pbc="T T T"
Si       1.74814508       0.32311704      -1.49056070       0.00000000
Si      -1.91736560       1.05919699      -0.78005718       0.00000000
Si       0.63498421       0.67951292       2.14636072       0.00000000
Si      -0.04378752      -2.14514867       0.98072417       0.00000000
Si       1.86373892      -1.98252560      -1.72437071       0.00000000
Si      -0.60543415      -1.10934901       2.98905704       0.00000000
H        1.32931288       2.98937793       0.00977369       0.00000000
Si      -0.75587230       2.50082453      -2.28100425       0.00000000
Si      -2.88794010       1.46333071       1.37167178       0.00000000
Si       2.15228369      -2.86674681       0.51765548       0.00000000
