10
Lattice="16.290000149 0.0 0.0 0.0 16.290000149 0.0 0.0 0.0 29.1751946751" Properties=species:S:1:pos:R:3:initial_magmoms:R:1 pbc="T T T"
Si       0.90921007       0.06773382      -1.21608046       0.00000000
H       -1.27568620      -1.75656701      -0.42318620       0.00000000
H        1.92277388       0.41265828       1.24017918       0.00000000
Si      -1.80897194      -2.01476351       0.96266472       0.00000000
Si       0.02169828       1.48641364      -2.81094248       0.00000000
Si       1.19667970       2.94206036       0.25875480       0.00000000
Si       1.24958962      -2.05280066      -2.14709010       0.00000000
Si       2.79274134       1.41240817      -0.83175562       0.00000000
Si      -2.66015702      -0.14098995       2.07946200       0.00000000
H       -2.86585086      -0.91228888      -1.60478158       0.00000000
