10
Lattice="16.290000149 0.0 0.0 0.0 16.290000149 0.0 0.0 0.0 29.1751946751" Properties=species:S:1:pos:R:3:initial_magmoms:R:1 pbc="T T T"
Si      -1.37156914      -1.34879572      -1.33569876       0.00000000
Si      -1.36533007       1.34654770       1.35028636       0.00000000
Si       1.32615262      -1.38264634       1.35988500       0.00000000
Si       1.38340627       1.33361344      -1.36814158       0.00000000
Si       0.06908589      -2.68060586      -2.61786104       0.00000000
Si       2.69716302      -0.01343925       2.68370946       0.00000000
Si      -0.00684180       2.70804962       2.68592677       0.00000000
Si      -2.69591357       2.71028135      -0.02707458       0.00000000
Si       0.05357781       2.74005948      -2.68166719       0.00000000
Si      -2.72148887      -0.03015279       2.70579508       0.00000000
