10
Lattice="16.290000149 0.0 0.0 0.0 16.290000149 0.0 0.0 0.0 29.1751946751" Properties=species:S:1:pos:R:3:initial_magmoms:R:1 pbc="T T T"
Si       1.37202526       1.34361550      -1.34205896       0.00000000
Si       1.36376623      -1.39315339       1.30424790       0.00000000
Si      -1.35252613      -1.35283564      -1.36344437       0.00000000
Si      -1.34964280       1.37256283       1.34984873       0.00000000
Si      -0.00011403       2.69011433      -2.68403038       0.00000000
Si      -2.73833274       0.01270620       2.66244074       0.00000000
Si       2.78435199      -0.08267175       2.61730671       0.00000000
Si       0.01500309      -2.75077830       2.65680993       0.00000000
Si       0.01604565      -2.73362492      -2.68508069       0.00000000
Si       0.02783961       2.73825129       2.68548914       0.00000000
