10
Lattice="16.290000149 0.0 0.0 0.0 16.290000149 0.0 0.0 0.0 29.1751946751" Properties=species:S:1:pos:R:3:initial_magmoms:R:1 pbc="T T T"
Si       1.02623743      -1.12809228      -0.03970744       0.00000000
Si      -0.35539893       2.53333612       0.83149305       0.00000000
Si      -1.89731261       1.81295973      -0.76850380       0.00000000
Si      -0.21998016       1.06922348       2.74734056       0.00000000
Si      -1.80480170      -0.61416233       2.30554058       0.00000000
H        1.18164403       2.14426575      -1.80641135       0.00000000
Si       2.92679012      -0.22086145       1.01748491       0.00000000
Si      -1.26917020       0.73586492      -2.81015475       0.00000000
Si       1.29440341      -1.86804274      -2.25072039       0.00000000
Si       0.17583426      -3.06747545       0.95948463       0.00000000
