10
Lattice="16.290000149 0.0 0.0 0.0 16.290000149 0.0 0.0 0.0 29.1751946751" Properties=species:S:1:pos:R:3:initial_magmoms:R:1 pbc="T T T"
Si      -1.29854107       1.11028731      -1.56163147       0.00000000
Si      -1.89705197      -0.02465166       1.34710626       0.00000000
Si       1.58482153       1.68338581       0.44179997       0.00000000
Si       0.39454380      -2.29323129       0.36156819       0.00000000
H        1.80480170       0.61416233      -2.30554058       0.00000000
H        2.47549358      -0.35860969       1.86537442       0.00000000
H       -2.06252579       1.36017592       1.97128038       0.00000000
Si       1.98063596      -2.45331312      -1.34605596       0.00000000
Si      -1.10708470      -1.27388453       3.07857821       0.00000000
Si       0.79853581       2.31190289       2.61787592       0.00000000
