10
Lattice="16.290000149 0.0 0.0 0.0 16.290000149 0.0 0.0 0.0 29.1751946751" Properties=species:S:1:pos:R:3:initial_magmoms:R:1 pbc="T T T"
Si       1.39347919       1.43332453      -1.17812354       0.00000000
Si       1.70605172      -1.59249412       0.01207853       0.00000000
Si      -0.96290191       1.26930052       1.75296240       0.00000000
Si      -1.58972482      -0.81700867      -1.56253590       0.00000000
Si      -2.06443172       1.21525030      -2.62098279       0.00000000
Si      -0.17060517       2.71819829      -2.30037657       0.00000000
Si       0.63765577      -3.35754822      -1.04155445       0.00000000
Si      -2.40935618       2.69640227       0.53787389       0.00000000
Si      -0.28922895      -2.31920732      -2.87874563       0.00000000
Si       2.36597591      -2.03279654       2.13760233       0.00000000
