10
Lattice="16.290000149 0.0 0.0 0.0 16.290000149 0.0 0.0 0.0 29.1751946751" Properties=species:S:1:pos:R:3:initial_magmoms:R:1 pbc="T T T"
Si      -1.39119859      -1.34180731      -1.28051680       0.00000000
Si       1.32982846      -1.40644603       1.31352561       0.00000000
Si      -1.42500034       1.35707104       1.27358477       0.00000000
Si       1.29653740       1.32234076      -1.46069113       0.00000000
Si       2.63215126       2.67724523      -0.08457889       0.00000000
Si       2.66717964      -0.03174921       2.65826869       0.00000000
Si      -0.06970491       2.69563664       2.64146378       0.00000000
Si      -0.13403412      -2.73364121      -2.65767643       0.00000000
Si      -2.74949139      -0.02977812       2.65459261       0.00000000
Si       2.67842952      -2.73090449      -0.09578216       0.00000000
