10
Lattice="16.290000149 0.0 0.0 0.0 16.290000149 0.0 0.0 0.0 29.1751946751" Properties=species:S:1:pos:R:3:initial_magmoms:R:1 pbc="T T T"
Si       1.33584517       1.40765149      -1.32818615       0.00000000
Si      -1.34402275       1.36963063       1.36630354       0.00000000
Si       1.37590228      -1.34923555       1.35889304       0.00000000
Si      -1.35425287      -1.37629324      -1.36282002       0.00000000
Si       2.72657135       0.04939128      -2.64501148       0.00000000
Si      -2.70486004      -2.69768918       0.02395283       0.00000000
Si       2.68341914       2.72315045       0.07766437       0.00000000
Si      -2.71011683       2.71538012      -0.00271329       0.00000000
Si       0.02091636      -2.69265557       2.73599141       0.00000000
Si      -2.69674436       0.02220327       2.73295719       0.00000000
