10
Lattice="16.290000149 0.0 0.0 0.0 16.290000149 0.0 0.0 0.0 29.1751946751" Properties=species:S:1:pos:R:3:initial_magmoms:R:1 pbc="T T T"
Si       1.35710362      -1.32291964      -1.38895808       0.00000000
Si      -1.35097695      -1.41088564       1.30919310       0.00000000
Si       1.32662503       1.29674696       1.44631651       0.00000000
Si      -1.30809190       1.38401737      -1.38688664       0.00000000
Si       2.69358410       2.63017469       0.12317184       0.00000000
Si      -0.08430075      -2.67111264      -2.66868482       0.00000000
Si      -2.68475492       2.67792068       0.01182762       0.00000000
Si      -2.64131389      -0.06608097       2.75835419       0.00000000
Si       2.69498504      -2.71861428      -0.01627976       0.00000000
Si       0.01511712      -2.75663514       2.67820993       0.00000000
