10
Lattice="16.290000149 0.0 0.0 0.0 16.290000149 0.0 0.0 0.0 29.1751946751" Properties=species:S:1:pos:R:3:initial_magmoms:R:1 pbc="T T T"
Si      -0.34533171       0.88277140       2.13504075       0.00000000
Si      -1.85490974      -0.93108754      -1.10737369       0.00000000
Si       1.05624361       1.76292011      -1.18057425       0.00000000
Si       1.60190974      -1.77613130      -0.08848837       0.00000000
Si       2.13783446       0.34220403      -2.67895390       0.00000000
Si      -0.67170187      -2.38329218      -2.51840280       0.00000000
Si       1.27666360       2.56995929       2.20476946       0.00000000
Si       2.23000328      -2.17759835       2.06006050       0.00000000
Si       3.43334559      -0.95133601      -1.25266616       0.00000000
Si      -3.15659478      -2.16722162       0.39278565       0.00000000
