10
Lattice="16.290000149 0.0 0.0 0.0 16.290000149 0.0 0.0 0.0 29.1751946751" Properties=species:S:1:pos:R:3:initial_magmoms:R:1 pbc="T T T"
H        0.71845417       0.07850151       1.32519569       0.00000000
H       -1.39520593       0.84051514       1.63001813       0.00000000
Si       1.60915879      -0.78965776      -1.52233248       0.00000000
Si      -1.87235633      -1.46109898      -0.16066780       0.00000000
Si      -0.34451721       1.95089042      -1.36936694       0.00000000
H        1.86484664       1.71347996       0.20314688       0.00000000
H        2.51586020       1.29086848       0.24460483       0.00000000
Si      -0.79545700       0.92960515       3.03080675       0.00000000
Si       0.12272886      -1.80369398      -2.99206209       0.00000000
Si      -0.99810460      -3.24475626      -1.44183812       0.00000000
