10
Lattice="16.290000149 0.0 0.0 0.0 16.290000149 0.0 0.0 0.0 29.1751946751" Properties=species:S:1:pos:R:3:initial_magmoms:R:1 pbc="T T T"
Si       1.33561385       1.35490447       1.37611224       0.00000000
Si      -1.29653740      -1.32234076       1.46069113       0.00000000
Si      -1.38855961       1.35207001      -1.36313803       0.00000000
Si       1.40880157      -1.33879366      -1.36597970       0.00000000
Si      -0.09772371      -2.71194293      -2.53779351       0.00000000
Si       0.07291567       2.52916913      -2.77898981       0.00000000
Si      -2.68773599      -2.66414807       0.18017433       0.00000000
Si       2.68622102       2.67630041      -0.01066062       0.00000000
Si       2.70366761       0.00218286       2.73553044       0.00000000
Si      -0.01816335       2.72086985       2.72814911       0.00000000
