10
Lattice="16.290000149 0.0 0.0 0.0 16.290000149 0.0 0.0 0.0 29.1751946751" Properties=species:S:1:pos:R:3:initial_magmoms:R:1 pbc="T T T"
H       -0.07998390      -1.06665292      -1.07256768       0.00000000
Si       2.19742980       0.19829817       0.65673363       0.00000000
Si      -1.61702686      -0.67758256       1.56533672       0.00000000
Si      -0.44805645       2.13825800      -0.87893191       0.00000000
H       -1.88889068       2.42826887      -0.43640256       0.00000000
H        1.08343814       0.73212148      -2.97867068       0.00000000
Si      -3.15894054      -1.39795894      -0.03466013       0.00000000
H       -1.26162793      -3.21091867       0.73384367       0.00000000
Si       3.02164842      -2.06047325       0.40967808       0.00000000
Si       3.51780924      -0.08203644      -1.25074060       0.00000000
