10
Lattice="16.290000149 0.0 0.0 0.0 16.290000149 0.0 0.0 0.0 29.1751946751" Properties=species:S:1:pos:R:3:initial_magmoms:R:1 pbc="T T T"
Si       1.21483816      -1.28673245      -1.60711560       0.00000000
Si      -1.29002140       1.34702011      -1.50030521       0.00000000
Si      -1.43811379      -1.42171465       1.34841915       0.00000000
Si       1.31788708       1.70131133       1.13371889       0.00000000
H        2.83434600       0.22762017       0.49985861       0.00000000
H        0.18116761       2.66737349       1.42617104       0.00000000
H       -0.98225443       0.86859910       3.33227404       0.00000000
Si      -2.62905941      -2.57115009      -0.34245844       0.00000000
Si       3.44981478      -1.07923694       0.93322695       0.00000000
Si       2.59444316      -2.74105317      -0.45428696       0.00000000
