10
Lattice="16.290000149 0.0 0.0 0.0 16.290000149 0.0 0.0 0.0 29.1751946751" Properties=species:S:1:pos:R:3:initial_magmoms:R:1 pbc="T T T"
Si       1.37717290      -1.34436484       1.33744927       0.00000000
Si       1.36612828       1.34861653      -1.34631853       0.00000000
Si      -1.34618932       1.35154873       1.37458930       0.00000000
Si      -1.35337321      -1.36686133      -1.35332058       0.00000000
Si       0.02503773      -2.69956253       2.67358566       0.00000000
Si       0.00457749       2.71179632      -2.68583925       0.00000000
Si      -2.71503803       2.69446376       0.00881091       0.00000000
Si       2.72758133      -0.01525721      -2.69021553       0.00000000
Si      -2.73483038      -0.01053474      -2.68359276       0.00000000
Si       2.72764650       2.69115689       0.01671739       0.00000000
