10
Lattice="16.290000149 0.0 0.0 0.0 16.290000149 0.0 0.0 0.0 29.1751946751" Properties=species:S:1:pos:R:3:initial_magmoms:R:1 pbc="T T T"
H        1.31222467      -0.45916623       0.60626055       0.00000000
Si      -1.25854912       0.24762429       1.93857499       0.00000000
Si       0.27127737       2.02944080      -1.19667896       0.00000000
Si      -0.97145416      -1.99651871      -0.87831924       0.00000000
H        1.88309144      -0.57881629      -1.72743410       0.00000000
Si       3.06887313      -1.09084357      -0.92847140       0.00000000
H       -0.88658326      -2.81944065       1.69615829       0.00000000
Si      -1.92479384       2.75103894      -0.73361027       0.00000000
Si      -3.31991832      -0.44727453       1.03595281       0.00000000
H        1.07691562       0.16506657      -3.38324310       0.00000000
