10
Lattice="16.290000149 0.0 0.0 0.0 16.290000149 0.0 0.0 0.0 29.1751946751" Properties=species:S:1:pos:R:3:initial_magmoms:R:1 pbc="T T T"
Si       1.31162131       1.33555488      -1.36729550       0.00000000
Si      -1.27511605      -1.46334700      -1.29815029       0.00000000
Si      -1.30028410       1.41276492       1.34095030       0.00000000
Si       1.23075838      -1.49183821       1.35956407       0.00000000
H       -1.92114488      -2.28918485      -0.22059365       0.00000000
Si      -2.59087565      -0.02425581       2.62287918       0.00000000
Si       2.54361348       2.69718257       0.07629313       0.00000000
Si      -0.15812703       2.62826772      -2.63787523       0.00000000
Si       2.69084087      -0.06001236      -2.66518321       0.00000000
Si       2.57268135      -2.79384906      -0.06354357       0.00000000
