10
Lattice="16.290000149 0.0 0.0 0.0 16.290000149 0.0 0.0 0.0 29.1751946751" Properties=species:S:1:pos:R:3:initial_magmoms:R:1 pbc="T T T"
Si       1.84239902       1.01077822      -0.94075707       0.00000000
Si       1.39515706      -1.36923967       1.26158502       0.00000000
Si      -1.32506119       1.48564671       1.20721121       0.00000000
Si      -1.31103550      -1.18148113      -1.54896652       0.00000000
Si       1.05243175       2.26001109      -2.67222902       0.00000000
Si      -2.68253948       0.09327654       2.51436204       0.00000000
Si      -2.63938727      -2.58048263      -0.20831381       0.00000000
Si       2.73206109      -2.53107506      -0.29047699       0.00000000
Si       0.03761361      -2.70852203       2.57405449       0.00000000
Si       2.81266401       0.08617410       2.49566074       0.00000000
