10
Lattice="16.290000149 0.0 0.0 0.0 16.290000149 0.0 0.0 0.0 29.1751946751" Properties=species:S:1:pos:R:3:initial_magmoms:R:1 pbc="T T T"
Si       1.39771459       1.25581240       1.38930906       0.00000000
Si      -1.55984408       1.27254223      -1.21177333       0.00000000
Si       1.25553547      -1.34839662      -1.48050605       0.00000000
Si      -1.40496853      -1.38543682       1.32182975       0.00000000
Si      -2.83926558      -0.65239822      -1.77710108       0.00000000
Si      -0.01640403       2.64616391       2.67294177       0.00000000
Si       2.61273683      -2.73378848      -0.08035928       0.00000000
Si       2.59670747      -0.13927950       2.83188823       0.00000000
Si      -2.79668352      -2.67546034      -0.12385950       0.00000000
Si       3.27565839       2.05822523       0.19309807       0.00000000
