10
Lattice="16.290000149 0.0 0.0 0.0 16.290000149 0.0 0.0 0.0 29.1751946751" Properties=species:S:1:pos:R:3:initial_magmoms:R:1 pbc="T T T"
Si       1.35213517       1.35519769      -1.33613639       0.00000000
Si       1.39527109      -1.45008694       1.19361556       0.00000000
Si      -1.37748241      -1.36568845      -1.33564041       0.00000000
Si      -1.30339549       1.34684092       1.43136423       0.00000000
Si      -0.01954800      -2.77610925       2.43265691       0.00000000
Si       2.66007557       2.66856592       0.11077821       0.00000000
Si      -0.02503773       2.69956253      -2.67358566       0.00000000
Si       2.70459614      -0.03170034      -2.67151423       0.00000000
Si      -2.64652229      -0.03218904       2.74424799       0.00000000
Si      -2.70501968       2.68741345       0.07136253       0.00000000
