10
Lattice="16.290000149 0.0 0.0 0.0 16.290000149 0.0 0.0 0.0 29.1751946751" Properties=species:S:1:pos:R:3:initial_magmoms:R:1 pbc="T T T"
Si      -1.58609215       0.16008183       1.70762414       0.00000000
Si       0.85040317       1.93938316      -0.99919207       0.00000000
Si       1.75637153      -1.19421991       0.99534094       0.00000000
Si      -1.56196666      -0.77892265      -1.59101089       0.00000000
H       -0.17583426       3.06747545      -0.95948463       0.00000000
Si      -1.98063596       2.45331312       1.34605596       0.00000000
Si       1.11856915       1.19943271      -3.21020502       0.00000000
Si      -2.46798389      -2.62177778      -0.42143569       0.00000000
Si       0.62235946      -2.82291042       2.20608235       0.00000000
Si      -0.40490424      -0.65230048      -3.64710356       0.00000000
