10
Lattice="16.290000149 0.0 0.0 0.0 16.290000149 0.0 0.0 0.0 29.1751946751" Properties=species:S:1:pos:R:3:initial_magmoms:R:1 pbc="T T T"
Si       1.35091342      -1.34206795       1.36356107       0.00000000
Si      -1.35034327       1.33415101       1.39369905       0.00000000
Si      -1.41750694      -1.45541377      -1.23407572       0.00000000
Si       1.47162232       1.42413062      -1.21050800       0.00000000
Si      -0.97026499       0.92460412      -3.43641781       0.00000000
Si       0.08004906       2.77936887      -2.49323336       0.00000000
Si      -2.81266401      -0.08617410      -2.49566074       0.00000000
Si       2.68578119      -2.68512959      -0.02902932       0.00000000
Si      -0.08060292      -2.61724916      -2.78613773       0.00000000
Si      -0.00469152      -2.71316468       2.70491982       0.00000000
