10
Lattice="16.290000149 0.0 0.0 0.0 16.290000149 0.0 0.0 0.0 29.1751946751" Properties=species:S:1:pos:R:3:initial_magmoms:R:1 pbc="T T T"
Si       1.31483107      -1.42469083      -1.29873525       0.00000000
Si       1.41382540       1.29212281       1.34592029       0.00000000
Si      -1.28133883      -1.49944564       1.27676925       0.00000000
Si      -1.28857159       1.50099319      -1.33149899       0.00000000
Si       2.58333338       0.05445747      -2.62632331       0.00000000
Si      -2.66699882      -0.13356171       2.62811175       0.00000000
Si       0.02309922       2.65038302       2.66274562       0.00000000
Si      -2.63016713       0.14615388      -2.68085175       0.00000000
Si      -0.05408280      -2.45456093      -2.93607635       0.00000000
Si       2.74217718       2.69112431       0.00526758       0.00000000
