10
Lattice="16.290000149 0.0 0.0 0.0 16.290000149 0.0 0.0 0.0 29.1751946751" Properties=species:S:1:pos:R:3:initial_magmoms:R:1 pbc="T T T"
Si       0.62809354      -0.40146705       2.14854886       0.00000000
Si       1.83143585       0.82479529      -1.16417779       0.00000000
Si      -0.87785182      -1.88916761      -1.06982521       0.00000000
Si      -1.60190974       1.77613130       0.08848837       0.00000000
H        2.67646331       1.76011823      -0.35637500       0.00000000
Si      -2.27361161      -0.60716089      -2.42991444       0.00000000
Si       0.53592471       2.11833533      -2.59046554       0.00000000
Si      -1.49639941      -0.98697853       3.15051257       0.00000000
Si      -3.45681948       0.84504376      -1.01888532       0.00000000
Si      -0.54566613       3.53905140      -1.09208589       0.00000000
