10
Lattice="16.290000149 0.0 0.0 0.0 16.290000149 0.0 0.0 0.0 29.1751946751" Properties=species:S:1:pos:R:3:initial_magmoms:R:1 pbc="T T T"
Si      -1.35498592      -1.34342002       1.37709836       0.00000000
Si       1.33410214       1.35027811       1.39562461       0.00000000
Si      -1.37590228       1.34923555      -1.35889304       0.00000000
Si       1.36290286      -1.37469682      -1.34868172       0.00000000
Si       2.69097770       2.71485884       0.06296007       0.00000000
Si       2.71542899      -2.69456150       0.05753348       0.00000000
Si      -2.71270856      -2.70117524       0.02447799       0.00000000
Si       2.72235224      -0.01917333      -2.70098701       0.00000000
Si      -2.71992503       2.71886618       0.00741050       0.00000000
Si      -0.04005711       2.75688705      -2.68707919       0.00000000
