10
Lattice="16.290000149 0.0 0.0 0.0 16.290000149 0.0 0.0 0.0 29.1751946751" Properties=species:S:1:pos:R:3:initial_magmoms:R:1 pbc="T T T"
Si      -1.56408436       1.28487376      -1.12225304       0.00000000
Si      -1.39347919      -1.43332453       1.17812354       0.00000000
Si       1.56082636       1.12062169       1.46981713       0.00000000
Si       1.07665498      -1.10833903      -1.86534525       0.00000000
Si       2.10336482      -2.44749107      -0.25204451       0.00000000
Si       0.31257252      -3.02581866       1.19020207       0.00000000
Si       0.05781321       2.31300083      -2.51291787       0.00000000
Si       1.83602963       0.76385440      -3.14753670       0.00000000
Si      -3.45791091      -0.21807423      -1.44285925       0.00000000
Si      -2.53433306       2.74222605       0.38840937       0.00000000
