10
Lattice="16.290000149 0.0 0.0 0.0 16.290000149 0.0 0.0 0.0 29.1751946751" Properties=species:S:1:pos:R:3:initial_magmoms:R:1 pbc="T T T"
Si      -0.97024870       1.45735228       1.51066241       0.00000000
Si       1.56408436      -1.28487376       1.12225304       0.00000000
Si       1.62189757       1.02812707      -1.39066483       0.00000000
Si      -1.89382655      -1.50294799      -0.32060621       0.00000000
H       -0.37991538      -2.35405163      -2.02621727       0.00000000
H        0.76647709      -0.71907319      -3.14826608       0.00000000
H       -2.49357548      -1.59203800      -1.72139484       0.00000000
Si       0.17060517      -2.71819829       2.30037657       0.00000000
Si      -2.66405033       2.38602890       0.20390544       0.00000000
H       -2.13076460       2.64422540      -1.18194549       0.00000000
