10
Lattice="16.290000149 0.0 0.0 0.0 16.290000149 0.0 0.0 0.0 29.1751946751" Properties=species:S:1:pos:R:3:initial_magmoms:R:1 pbc="T T T"
Si       1.32979507      -1.35860230       1.36481561       0.00000000
Si      -1.34179754      -1.36417348      -1.35145337       0.00000000
Si      -1.32029474       1.33656193       1.40691541       0.00000000
Si       1.35123271       1.36427122      -1.36440715       0.00000000
Si       2.64026042       0.07174116       2.68723966       0.00000000
Si      -2.66096175       2.70179426       0.03194684       0.00000000
Si      -2.68106361       0.00834048      -2.70214818       0.00000000
Si      -2.69706039      -2.71029764       0.02115202       0.00000000
Si       2.70722861      -2.70438437       0.00673947       0.00000000
Si       0.02294121      -2.71314839      -2.70436550       0.00000000
