10
Lattice="16.290000149 0.0 0.0 0.0 16.290000149 0.0 0.0 0.0 29.1751946751" Properties=species:S:1:pos:R:3:initial_magmoms:R:1 pbc="T T T"
Si      -1.35529543      -1.33856560      -1.36787900       0.00000000
Si      -1.34250778       1.34394130       1.37587301       0.00000000
Si       1.34807896       1.34757397      -1.37400579       0.00000000
Si       1.35083197      -1.37368684       1.34941110       0.00000000
Si       0.06970491      -2.69563664      -2.64146378       0.00000000
Si      -2.70935282       2.68218110       0.01388739       0.00000000
Si      -2.69407280      -0.04704552       2.70165220       0.00000000
Si       2.70177309      -0.01215234       2.70281921       0.00000000
Si      -2.67978647      -2.72541477       0.01312884       0.00000000
Si       2.70997184       2.70150104      -0.01703831       0.00000000
