10
Lattice="16.290000149 0.0 0.0 0.0 16.290000149 0.0 0.0 0.0 29.1751946751" Properties=species:S:1:pos:R:3:initial_magmoms:R:1 pbc="T T T"
Si       1.30158730       1.27663004       1.50960335       0.00000000
Si      -1.35250984      -1.35858536       1.40011759       0.00000000
Si       1.49516137      -1.29363713      -1.33444423       0.00000000
Si      -1.35720136       1.38539186      -1.40014677       0.00000000
Si       0.00061902      -2.54775537      -2.70623271       0.00000000
Si      -2.61273683       2.73378848       0.08035928       0.00000000
Si       2.70444953      -2.71353870       0.11531787       0.00000000
Si       0.18368604       2.75069750      -2.67705751       0.00000000
Si       2.30006657       3.05841560       0.35866817       0.00000000
Si       2.39011769       2.36897392      -1.86931307       0.00000000
