10
Lattice="16.290000149 0.0 0.0 0.0 16.290000149 0.0 0.0 0.0 29.1751946751" Properties=species:S:1:pos:R:3:initial_magmoms:R:1 pbc="T T T"
Si       1.34250778      -1.34394130      -1.37587301       0.00000000
Si      -1.36684504       1.33823980      -1.36198561       0.00000000
Si      -1.35156502      -1.39098682       1.32577920       0.00000000
Si       1.37197639       1.35011521       1.35273708       0.00000000
Si      -2.72953613      -0.04191417       2.64575253       0.00000000
Si      -2.70019784      -0.06294456      -2.70731219       0.00000000
Si       2.69333975      -2.71762814      -0.02646190       0.00000000
Si      -0.01124010       2.70933653      -2.70334436       0.00000000
Si      -2.72127710       2.69485472      -0.00055433       0.00000000
Si       0.02787219       2.71634123       2.70255663       0.00000000
