10
Lattice="16.290000149 0.0 0.0 0.0 16.290000149 0.0 0.0 0.0 29.1751946751" Properties=species:S:1:pos:R:3:initial_magmoms:R:1 pbc="T T T"
Si       1.32506119      -1.48564671      -1.20721121       0.00000000
Si       1.36515088       1.28099479       1.40707588       0.00000000
Si      -1.35747829      -1.39237017       1.30715083       0.00000000
Si      -1.38883654       1.32304091      -1.36189225       0.00000000
Si       2.70935282       2.61167929       0.07613267       0.00000000
Si      -2.70645320       2.64091984       0.04075191       0.00000000
Si      -2.68842017      -0.04033274       2.68483270       0.00000000
Si       0.03179808       2.69959642       2.69373114       0.00000000
Si       0.02598255      -2.74989733       2.65133958       0.00000000
Si      -2.70505226      -2.70786913      -0.09869968       0.00000000
