10
Lattice="16.290000149 0.0 0.0 0.0 16.290000149 0.0 0.0 0.0 29.1751946751" Properties=species:S:1:pos:R:3:initial_magmoms:R:1 pbc="T T T"
Si       1.33379263       1.36369781      -1.37035889       0.00000000
Si      -1.36231642      -1.34239701      -1.37727341       0.00000000
Si      -1.42431616       1.36286702       1.29835451       0.00000000
Si       1.40162419      -1.34057253       1.36000170       0.00000000
Si       0.05849739      -2.71960249       2.67288546       0.00000000
Si       2.70501968      -2.68741345      -0.07136253       0.00000000
Si       2.69498504       2.70905635      -0.00247989       0.00000000
Si      -0.13022226       2.79900973       2.61153003       0.00000000
Si      -2.72538218      -2.69246335      -0.02745386       0.00000000
Si       2.63228483       0.09213624       2.78669789       0.00000000
