10
Lattice="16.290000149 0.0 0.0 0.0 16.290000149 0.0 0.0 0.0 29.1751946751" Properties=species:S:1:pos:R:3:initial_magmoms:R:1 pbc="T T T"
Si      -1.32979507       1.35860230      -1.36481561       0.00000000
Si       1.31046535       1.43034346       1.32242405       0.00000000
Si      -1.34223737      -1.36821340       1.36291922       0.00000000
Si       1.37743354      -1.34578207      -1.35807614       0.00000000
Si       2.66642867       0.07340274       2.62559247       0.00000000
Si      -2.65008980       2.69516423       0.04209981       0.00000000
Si       2.68284899       2.68310963      -0.10952368       0.00000000
Si      -2.67159260      -0.00557118      -2.71626897       0.00000000
Si      -2.61391753      -0.00693954       2.78561841       0.00000000
Si       0.02220327      -2.71438643      -2.69532118       0.00000000
