10
Lattice="16.290000149 0.0 0.0 0.0 16.290000149 0.0 0.0 0.0 29.1751946751" Properties=species:S:1:pos:R:3:initial_magmoms:R:1 pbc="T T T"
Si      -0.74749924       2.18445318       0.39380678       0.00000000
Si       1.93029986       0.54343278       1.25517523       0.00000000
Si      -1.64245555      -1.47815787       0.92867562       0.00000000
Si       0.71983882       0.35077420      -2.26382006       0.00000000
H        1.44593299      -2.17862788      -1.28239568       0.00000000
H        1.76482604       1.92826035       1.87934934       0.00000000
Si       2.52881075       1.67837175      -1.65356251       0.00000000
Si       1.18649845       3.22217506      -0.50499344       0.00000000
H       -0.47684088      -2.59128616      -2.52257486       0.00000000
Si      -0.43316739      -2.89805944       2.37843773       0.00000000
