10
Lattice="16.290000149 0.0 0.0 0.0 16.290000149 0.0 0.0 0.0 29.1751946751" Properties=species:S:1:pos:R:3:initial_magmoms:R:1 pbc="T T T"
Si      -0.65992420       0.44030241      -2.12552380       0.00000000
Si      -1.90641872      -0.79498459       1.12689481       0.00000000
Si       0.84553246       1.94204495       1.04536765       0.00000000
Si       1.71106904      -1.66693943      -0.14821845       0.00000000
H       -1.14999256      -2.61866639      -0.79481399       0.00000000
Si       2.15888114       0.67987945       2.51795351       0.00000000
Si      -0.65265886      -2.16617906       2.53658479       0.00000000
Si       3.41604561      -0.71195446       1.14079387       0.00000000
Si       0.85576258      -3.39796208       1.25566829       0.00000000
Si      -2.36597591       2.03279654      -2.13760233       0.00000000
