10
Lattice="16.290000149 0.0 0.0 0.0 16.290000149 0.0 0.0 0.0 29.1751946751" Properties=species:S:1:pos:R:3:initial_magmoms:R:1 pbc="T T T"
H       -1.18578169       0.51202728      -0.79896271       0.00000000
Si       1.33170751      -1.07206120      -1.62252010       0.00000000
H       -1.75664846       0.63167734       1.53473194       0.00000000
Si       1.29585322       1.67558942       1.17821106       0.00000000
Si      -0.69129874      -1.86352715       1.41779776       0.00000000
H       -0.55403920       2.16736823      -1.90344805       0.00000000
H        1.52673139      -1.07847946       2.53850451       0.00000000
Si      -3.06887313       1.09084357       0.92847140       0.00000000
H       -1.99195751       1.25591014      -2.45477170       0.00000000
Si       2.55943595       0.02911023       2.32295818       0.00000000
