10
Lattice="16.290000149 0.0 0.0 0.0 16.290000149 0.0 0.0 0.0 29.1751946751" Properties=species:S:1:pos:R:3:initial_magmoms:R:1 pbc="T T T"
Si       0.85333537      -1.84187774       1.12155283       0.00000000
Si      -1.72274897       0.75883708       1.37677744       0.00000000
Si      -1.06526827      -0.08979048      -2.10627400       0.00000000
Si       1.79694992       1.59581728       0.12454891       0.00000000
H        2.33023565       1.85401379      -1.26130202       0.00000000
H       -1.14192901      -3.02117601      -1.07907375       0.00000000
H        1.66441448       0.92431090      -2.88233418       0.00000000
Si       2.56717370      -2.29315961      -0.39996274       0.00000000
Si      -0.38115342       2.11367639       2.72613019       0.00000000
Si      -0.61577830       2.11976885      -2.71568547       0.00000000
