10
Lattice="16.290000149 0.0 0.0 0.0 16.290000149 0.0 0.0 0.0 29.1751946751" Properties=species:S:1:pos:R:3:initial_magmoms:R:1 pbc="T T T"
Si       1.29854107      -1.11028731       1.56163147       0.00000000
Si      -1.80897194      -1.32759755      -0.61025755       0.00000000
Si       1.20603016       1.31683474      -1.51241292       0.00000000
Si      -1.34231230       1.54380331       1.14856906       0.00000000
Si      -0.59851090      -1.13493897       2.90873773       0.00000000
H        3.10334277      -0.49612499      -0.74390911       0.00000000
Si      -0.21291030      -2.85724974      -1.70076797       0.00000000
Si       2.74794384       2.03721113       0.08758393       0.00000000
Si      -2.52881075      -1.67837175       1.65356251       0.00000000
Si      -3.03477816       0.53576181      -1.56965465       0.00000000
