10
Lattice="16.290000149 0.0 0.0 0.0 16.290000149 0.0 0.0 0.0 29.1751946751" Properties=species:S:1:pos:R:3:initial_magmoms:R:1 pbc="T T T"
Si       0.64602883       0.82583785      -1.07755664       0.00000000
H       -1.43791831      -0.91145809      -0.55132365       0.00000000
H       -0.63174250      -1.65534095       1.10448534       0.00000000
Si      -2.24355656       0.95291614       1.63524049       0.00000000
Si       0.55403920      -2.16736823       1.90344805       0.00000000
Si       1.92114488       2.28918485       0.22059365       0.00000000
Si       1.88309144      -0.54107235      -2.49541275       0.00000000
Si      -2.53210133       1.83713735      -0.60678570       0.00000000
Si      -0.93315637       1.91081702      -2.39963059       0.00000000
Si      -2.28294578      -1.84678103      -1.35912644       0.00000000
