10
Lattice="16.290000149 0.0 0.0 0.0 16.290000149 0.0 0.0 0.0 29.1751946751" Properties=species:S:1:pos:R:3:initial_magmoms:R:1 pbc="T T T"
H        0.64537723      -0.84084094       1.07956973       0.00000000
Si      -1.43163037       1.22697910       1.28507980       0.00000000
Si      -1.43980795      -1.32939433      -1.21120821       0.00000000
Si       1.50011353       1.36184401      -1.16166873       0.00000000
Si       0.05479956       2.24101532       2.75480941       0.00000000
Si       0.08026083      -2.64746386      -2.40779964       0.00000000
Si       1.06420942      -3.50710183      -0.42076466       0.00000000
Si       0.15698673       2.70762608      -2.54492306       0.00000000
Si      -2.68224626       0.05940963      -2.58296751       0.00000000
Si       2.79225264      -0.59010526       2.39449575       0.00000000
