10
Lattice="16.290000149 0.0 0.0 0.0 16.290000149 0.0 0.0 0.0 29.1751946751" Properties=species:S:1:pos:R:3:initial_magmoms:R:1 pbc="T T T"
Si       0.68463613      -2.04958338      -0.76923318       0.00000000
Si      -0.60660703      -0.51943923       2.18376332       0.00000000
Si      -1.81887626       0.88703938      -1.15008617       0.00000000
Si       1.76663423       1.48296016      -0.33318072       0.00000000
H        1.37896480       0.26028162      -2.90582021       0.00000000
Si       0.15897411       1.52694316       3.06479585       0.00000000
Si      -2.83828818      -1.26576559      -1.54392213       0.00000000
Si       2.14713605       2.12973833       1.89061097       0.00000000
Si      -0.69804280       2.32810166      -2.70031014       0.00000000
Si       0.78838714       3.34213788      -1.23058054       0.00000000
