10
Lattice="16.290000149 0.0 0.0 0.0 16.290000149 0.0 0.0 0.0 29.1751946751" Properties=species:S:1:pos:R:3:initial_magmoms:R:1 pbc="T T T"
Si      -1.34368066      -1.32796081      -1.40691541       0.00000000
Si      -1.38543193       1.35058762       1.35489604       0.00000000
Si       1.35578413       1.34630335      -1.39387410       0.00000000
Si       1.39195640      -1.35580042       1.34964451       0.00000000
Si      -2.68394042      -2.67647960      -0.03501023       0.00000000
Si       2.66363657      -2.71707428      -0.07305469       0.00000000
Si      -2.71744895       2.66478338      -0.08828414       0.00000000
Si       0.02241504       2.71686251       2.67279793       0.00000000
Si       2.75023421       0.05664033       2.66069023       0.00000000
Si      -2.73655713      -0.03424158       2.70950033       0.00000000
