10
Lattice="16.290000149 0.0 0.0 0.0 16.290000149 0.0 0.0 0.0 29.1751946751" Properties=species:S:1:pos:R:3:initial_magmoms:R:1 pbc="T T T"
Si      -0.09005112       0.68944168       2.22798125       0.00000000
Si       0.74749924      -2.18445318      -0.39380678       0.00000000
Si       1.93399769       1.03772188      -0.89880022       0.00000000
Si      -2.20643165       0.38172357      -0.80774444       0.00000000
H        2.51232527      -0.25619283       1.48554256       0.00000000
Si       2.67779909      -1.64102041       0.86136845       0.00000000
Si      -2.16003773       2.67760361      -0.14158722       0.00000000
Si       1.46733805      -1.83367898      -2.65762683       0.00000000
Si       1.00711297       2.07606278      -2.73599141       0.00000000
Si       0.24153183       0.02968038      -3.61702393       0.00000000
