10
Lattice="16.290000149 0.0 0.0 0.0 16.290000149 0.0 0.0 0.0 29.1751946751" Properties=species:S:1:pos:R:3:initial_magmoms:R:1 pbc="T T T"
Si       1.35747829       1.39237017      -1.30715083       0.00000000
Si      -1.33094188       1.35203743       1.37768187       0.00000000
Si      -1.34757397      -1.31549896      -1.40585052       0.00000000
Si       1.38346084      -1.35752716       1.34418874       0.00000000
Si       2.68253948      -0.09327654      -2.51436204       0.00000000
Si      -0.03135825       2.71541108      -2.66904309       0.00000000
Si       0.04315221      -2.67375917      -2.72267585       0.00000000
Si       2.72262917       2.67336496       0.09992504       0.00000000
Si       0.02658528      -2.72210789       2.67685329       0.00000000
Si      -2.69873174      -0.00910611       2.70063107       0.00000000
