10
Lattice="16.290000149 0.0 0.0 0.0 16.290000149 0.0 0.0 0.0 29.1751946751" Properties=species:S:1:pos:R:3:initial_magmoms:R:1 pbc="T T T"
H        1.20208798       0.36909882       0.88275387       0.00000000
Si       0.84914884       1.48794490      -1.63022235       0.00000000
Si      -0.77200917      -2.10639476       1.17170499       0.00000000
Si       0.54837027      -2.38672937      -0.73576923       0.00000000
Si      -2.19958985       1.42672708       1.04654341       0.00000000
H        2.60581358      -1.66592945       1.35043224       0.00000000
Si      -3.41749542      -0.16643493      -0.36396055       0.00000000
Si      -0.23568372      -1.15939189       3.24687824       0.00000000
H       -1.88600083      -1.57257145      -2.46369931       0.00000000
Si       1.27874872       3.30048435      -0.14444639       0.00000000
