10
Lattice="16.290000149 0.0 0.0 0.0 16.290000149 0.0 0.0 0.0 29.1751946751" Properties=species:S:1:pos:R:3:initial_magmoms:R:1 pbc="T T T"
Si      -1.39118230       1.35449722       1.31300046       0.00000000
Si       1.34025976       1.34851879      -1.37190518       0.00000000
Si      -1.39975084      -1.37039626      -1.31501355       0.00000000
Si       1.35321031      -1.30914586       1.42701712       0.00000000
Si       2.58362660      -2.73977603       0.00959864       0.00000000
Si       2.68394042       2.67647960       0.03501023       0.00000000
Si      -2.89129584      -0.00734679       2.47466919       0.00000000
Si      -0.05261670       2.64223802       2.74451056       0.00000000
Si       2.66295890      -0.02407662      -2.74462726       0.00000000
Si      -2.73430910       2.70027929      -0.07025387       0.00000000
