10
Lattice="16.290000149 0.0 0.0 0.0 16.290000149 0.0 0.0 0.0 29.1751946751" Properties=species:S:1:pos:R:3:initial_magmoms:R:1 pbc="T T T"
Si       1.33980853      -1.35956341       1.36105201       0.00000000
Si      -1.35094112      -1.36153450      -1.35340811       0.00000000
Si      -1.32823286       1.34941474       1.39445760       0.00000000
Si       1.35873751       1.35236323      -1.36265664       0.00000000
Si       2.69037986       0.02717172       2.68388451       0.00000000
Si      -2.67230448       2.70620885       0.02579087       0.00000000
Si       0.03511147      -2.71523351      -2.68601430       0.00000000
Si      -2.70177309       0.01215234      -2.70281921       0.00000000
Si      -2.69248779      -2.71549415       0.02331098       0.00000000
Si       2.69868776       2.71489142       0.00224649       0.00000000
