10
Lattice="16.290000149 0.0 0.0 0.0 16.290000149 0.0 0.0 0.0 29.1751946751" Properties=species:S:1:pos:R:3:initial_magmoms:R:1 pbc="T T T"
Si      -1.35091342       1.34206795      -1.36356107       0.00000000
Si      -1.35560494      -1.37109673       1.34135875       0.00000000
Si       1.33486777      -1.34306164      -1.39259039       0.00000000
Si       1.36197433       1.35166276       1.35930150       0.00000000
Si       0.12070890       2.76619857      -2.57406908       0.00000000
Si      -2.76842037      -0.11334582      -2.59763680       0.00000000
Si      -2.70125669       2.67621896       0.03013798       0.00000000
Si       2.70182684      -2.70570386      -0.04653444       0.00000000
Si       0.01124010      -2.70933653       2.70334436       0.00000000
Si      -2.71003700      -0.01448181       2.70279003       0.00000000
