10
Lattice="16.290000149 0.0 0.0 0.0 16.290000149 0.0 0.0 0.0 29.1751946751" Properties=species:S:1:pos:R:3:initial_magmoms:R:1 pbc="T T T"
Si       1.36695907       1.33342774      -1.32314468       0.00000000
Si      -1.33226137       1.40305120       1.30599841       0.00000000
Si       1.38499210      -1.34782484       1.32093611       0.00000000
Si      -1.32662503      -1.29674696      -1.44631651       0.00000000
Si      -2.65272064       0.02127474       2.67425669       0.00000000
Si       0.01720224      -2.70896838       2.64388532       0.00000000
Si       0.06393825       2.74520060       2.63559956       0.00000000
Si      -2.67760199      -2.70763260      -0.13712342       0.00000000
Si      -2.62606694       2.76114851      -0.12166056       0.00000000
Si       2.74796013       0.02014910       2.66127373       0.00000000
