10
Lattice="16.290000149 0.0 0.0 0.0 16.290000149 0.0 0.0 0.0 29.1751946751" Properties=species:S:1:pos:R:3:initial_magmoms:R:1 pbc="T T T"
Si      -1.32104945       1.43421560      -1.27410993       0.00000000
Si       1.31521829       1.38410267       1.36221901       0.00000000
Si      -1.39803599      -1.33454197       1.33537784       0.00000000
Si       1.29033694      -1.34480467      -1.44916109       0.00000000
Si      -2.63930143       0.07999384      -2.59799274       0.00000000
Si       2.65643101      -2.69055416      -0.08014426       0.00000000
Si      -0.02892621      -2.69027723       2.67624061       0.00000000
Si       2.66260492       0.02366937       2.71711506       0.00000000
Si       2.64131389       0.06608097      -2.75835419       0.00000000
Si       2.63567755       2.76587913      -0.00603927       0.00000000
