10
Lattice="16.290000149 0.0 0.0 0.0 16.290000149 0.0 0.0 0.0 29.1751946751" Properties=species:S:1:pos:R:3:initial_magmoms:R:1 pbc="T T T"
Si       1.36875097       1.35646831      -1.33849958       0.00000000
Si       1.36967950      -1.34192134       1.35276625       0.00000000
Si      -1.32017419       1.36878355       1.38249577       0.00000000
Si      -1.36410832      -1.36389655      -1.35104492       0.00000000
Si      -0.01901043      -2.70177797       2.66535826       0.00000000
Si      -0.01270620       2.71279490      -2.66877176       0.00000000
Si       2.71920827      -0.02436984      -2.68111287       0.00000000
Si      -2.68323995       0.01871721       2.73231533       0.00000000
Si      -2.70878267       2.71691138       0.04790567       0.00000000
Si      -2.74346409      -0.01632258      -2.68616017       0.00000000
