10
Lattice="16.290000149 0.0 0.0 0.0 16.290000149 0.0 0.0 0.0 29.1751946751" Properties=species:S:1:pos:R:3:initial_magmoms:R:1 pbc="T T T"
Si      -1.23706261       1.36691020       1.41785611       0.00000000
Si       1.32282946      -1.37401264       1.33421083       0.00000000
Si       1.34918953       1.41016015      -1.30547326       0.00000000
Si      -1.38790801      -1.35935164      -1.32992207       0.00000000
H       -1.88309144       0.54107235       2.49541275       0.00000000
Si       2.61073479       0.03640815       2.65246282       0.00000000
Si      -2.81624781       2.45188937       0.09578216       0.00000000
Si      -0.09016515       2.75911878      -2.59218687       0.00000000
Si       2.68787283       0.04668714      -2.67764102       0.00000000
Si      -0.00464265      -2.70368390      -2.66529991       0.00000000
