10
Lattice="16.290000149 0.0 0.0 0.0 16.290000149 0.0 0.0 0.0 29.1751946751" Properties=species:S:1:pos:R:3:initial_magmoms:R:1 pbc="T T T"
Si       1.37101040       1.36920709       1.32382446       0.00000000
Si       1.37920101      -1.34807245      -1.34141710       0.00000000
Si      -1.32615262       1.38264634      -1.35988500       0.00000000
Si      -1.35229807      -1.35080265       1.37289714       0.00000000
Si      -2.68540652      -2.70565499      -0.00951111       0.00000000
Si      -2.69772176       0.03385062      -2.69558376       0.00000000
Si       0.00627165       2.71818200       2.67673659       0.00000000
Si       2.70006752       0.00936675       2.69768438       0.00000000
Si       2.69966027       0.03370401      -2.70967538       0.00000000
Si      -2.69148269       2.72919404      -0.00959864       0.00000000
