10
Lattice="16.290000149 0.0 0.0 0.0 16.290000149 0.0 0.0 0.0 29.1751946751" Properties=species:S:1:pos:R:3:initial_magmoms:R:1 pbc="T T T"
Si       1.32029474      -1.33656193      -1.40691541       0.00000000
Si       1.39138267       1.37619550       1.31119160       0.00000000
Si      -1.34066701       1.36523233      -1.37496857       0.00000000
Si      -1.35578413      -1.34630335       1.39387410       0.00000000
Si      -0.01319490       2.69490359       2.62454216       0.00000000
Si       2.65008980      -2.69516423      -0.04209981       0.00000000
Si      -2.69946479      -2.67426416      -0.01304131       0.00000000
Si      -2.72393237       2.70956459      -0.03959074       0.00000000
Si       2.67152744       0.02770929      -2.77132257       0.00000000
Si       0.03617227      -2.70210377       2.74351861       0.00000000
