10
Lattice="10.86 0.0 0.0 0.0 10.86 0.0 0.0 0.0 10.86" Properties=species:S:1:pos:R:3:initial_magmoms:R:1 pbc="T T T"
Si       1.60603110       1.02683472      -1.19141802       0.00000000
Si      -1.32020676      -1.62246228      -0.87706446       0.00000000
Si      -1.30185336       1.21181310       1.50784584       0.00000000
Si       0.09980340       2.54247804      -2.49774570       0.00000000
Si      -2.61519660      -0.17252196      -2.49774570       0.00000000
Si      -2.61519660       2.54247804       0.21725430       0.00000000
Si       2.81480340      -0.17252196      -2.49774570       0.00000000
Si       2.81480340       2.54247804       0.21725430       0.00000000
Si       0.09980340      -2.88752196      -2.49774570       0.00000000
Si       0.09980340       2.54247804       2.93225430       0.00000000
