10
Lattice="10.86 0.0 0.0 0.0 10.86 0.0 0.0 0.0 10.86" Properties=species:S:1:pos:R:3:initial_magmoms:R:1 pbc="T T T"
Si       1.29872568      -1.29025488      -1.39156782       0.00000000
Si       1.29872568       1.42474512       1.32343218       0.00000000
Si      -1.41627432       1.42474512      -1.39156782       0.00000000
Si      -1.59153300      -1.52505894       1.43050092       0.00000000
Si      -2.62504662       2.62410180      -0.08524014       0.00000000
Si       2.65622568      -2.64775488      -0.03406782       0.00000000
Si       0.00086880      -2.62519866       2.69867742       0.00000000
Si      -2.65352154      -2.66263308      -0.22727808       0.00000000
Si       2.65622568       0.06724512       2.68093218       0.00000000
Si      -0.05877432      -2.64775488      -2.74906782       0.00000000
