10
Lattice="10.86 0.0 0.0 0.0 10.86 0.0 0.0 0.0 10.86" Properties=species:S:1:pos:R:3:initial_magmoms:R:1 pbc="T T T"
Si      -1.06198854      -1.13757414      -1.65777900       0.00000000
Si       1.59240180      -1.10013972       1.26817650       0.00000000
Si       1.59153300       1.52505894      -1.43050092       0.00000000
Si      -2.53974132      -2.48019594      -0.10706874       0.00000000
Si       0.17525868      -2.48019594       2.60793126       0.00000000
Si       0.17525868      -2.48019594      -2.82206874       0.00000000
Si      -2.53974132       0.23480406      -2.82206874       0.00000000
Si       2.89025868      -2.48019594      -0.10706874       0.00000000
Si       2.89025868       0.23480406       2.60793126       0.00000000
Si      -3.15883734      -1.42448448       2.00716692       0.00000000
