10
Lattice="10.86 0.0 0.0 0.0 10.86 0.0 0.0 0.0 10.86" Properties=species:S:1:pos:R:3:initial_magmoms:R:1 pbc="T T T"
Si      -1.48525704      -1.16067336       1.16932878       0.00000000
Si       1.22974296      -1.16067336      -1.54567122       0.00000000
Si       1.22974296       1.55432664       1.16932878       0.00000000
Si      -0.12775704      -2.51817336       2.52682878       0.00000000
Si       2.58724296      -2.51817336      -0.18817122       0.00000000
Si       2.58724296       0.19682664       2.52682878       0.00000000
Si      -2.84275704       0.19682664       2.52682878       0.00000000
Si      -0.06811392      -2.49561714      -2.88542598       0.00000000
Si      -0.12775704       2.91182664       2.52682878       0.00000000
Si       2.58724296       0.19682664      -2.90317122       0.00000000
