10
Lattice="16.28999089631971 0.0 0.0 0.0 16.28999089631971 0.0 0.0 0.0 34.433804113860816" Properties=species:S:1:pos:R:3:initial_magmoms:R:1 pbc="T T T"
Si       1.82355473      -0.01185912      -1.46467711       0.00000000
Si      -1.28891760       1.96863021       0.24582306       0.00000000
Si       0.89407991      -0.36898479       2.16754031       0.00000000
Si      -1.49848845      -1.72162494      -0.80141280       0.00000000
Si       0.19709108      -3.36799008      -0.68006801       0.00000000
Si       2.20790099      -2.34046575      -1.28111040       0.00000000
Si       0.56354766       0.76075929      -3.37351611       0.00000000
Si      -1.10803344      -0.10393020       3.45774124       0.00000000
Si      -3.35154111      -1.43042490       0.69728492       0.00000000
Si      -2.28956343       1.76217075       2.45365095       0.00000000
