10
Lattice="16.28999089631971 0.0 0.0 0.0 16.28999089631971 0.0 0.0 0.0 34.433804113860816" Properties=species:S:1:pos:R:3:initial_magmoms:R:1 pbc="T T T"
Si       0.96257610       1.69951941       1.31924727       0.00000000
Si      -1.64978115      -0.96918984       1.41811367       0.00000000
Si      -1.71337405       0.78289740      -1.59397612       0.00000000
Si       1.88545347      -1.78857684       0.01313550       0.00000000
Si      -0.28502613      -2.27794473       2.75655983       0.00000000
Si      -2.45084190      -2.68359831       0.02092086       0.00000000
Si       1.31797503       3.41952417      -0.31682561       0.00000000
Si       2.43087525       0.44333235       2.72851692       0.00000000
Si      -2.72390791      -1.48289499      -2.23812965       0.00000000
Si       1.07064396      -3.53268198       1.37790529       0.00000000
