10
Lattice="16.28999089631971 0.0 0.0 0.0 16.28999089631971 0.0 0.0 0.0 34.433804113860816" Properties=species:S:1:pos:R:3:initial_magmoms:R:1 pbc="T T T"
Si       1.71337405      -0.78289740       1.59397612       0.00000000
Si       0.75855199       1.19273751      -2.05948697       0.00000000
Si      -1.01053386      -2.26579239      -0.64415353       0.00000000
Si      -1.17566021       2.02245237       1.28486368       0.00000000
Si       0.06359290      -1.75208724       3.01208978       0.00000000
Si       2.21676764       2.74469463      -1.00181766       0.00000000
Si      -1.82579853      -1.65345129      -2.93544901       0.00000000
Si      -1.81191945       3.33227655      -0.67445530       0.00000000
Si      -0.73746785      -3.46649571       1.61489698       0.00000000
Si      -2.74339794       0.93222783       2.72728075       0.00000000
