10
Lattice="16.28999089631971 0.0 0.0 0.0 16.28999089631971 0.0 0.0 0.0 34.433804113860816" Properties=species:S:1:pos:R:3:initial_magmoms:R:1 pbc="T T T"
Si       0.83359188       1.85236848      -1.36233979       0.00000000
Si      -1.80955836      -0.85744044      -1.41130468       0.00000000
Si       1.72390554      -1.92890704      -0.22581701       0.00000000
Si      -1.17051795      -0.56664765       2.95208054       0.00000000
Si      -0.50368680      -2.18463072      -2.86878513       0.00000000
Si       2.21550516       0.56268918      -2.85979790       0.00000000
Si       3.49676253      -0.90907974      -1.56243473       0.00000000
Si       2.32297029       3.29623263      -0.18446199       0.00000000
Si      -3.60662229      -1.85085351      -0.15484890       0.00000000
Si       3.01944924      -2.10923897       1.76239195       0.00000000
