10
Lattice="16.28999089631971 0.0 0.0 0.0 16.28999089631971 0.0 0.0 0.0 34.433804113860816" Properties=species:S:1:pos:R:3:initial_magmoms:R:1 pbc="T T T"
Si      -0.71197074      -0.96676752       2.00308437       0.00000000
Si       1.81710063      -1.05509027      -1.05143680       0.00000000
Si      -2.02227318      -0.15845772      -1.29409195       0.00000000
Si       0.79390944       2.26505934       0.24038252       0.00000000
Si      -2.39133942       2.20770225      -1.08673147       0.00000000
Si      -0.19650627       2.92084587      -1.79114419       0.00000000
Si      -2.02416282       0.86081247       2.79137789       0.00000000
Si       3.16684116       1.88064792       0.52659646       0.00000000
Si       3.71902329      -0.38582865       0.15471117       0.00000000
Si      -2.41150644      -2.53188044       1.68970215       0.00000000
