10
Lattice="16.28999089631971 0.0 0.0 0.0 16.28999089631971 0.0 0.0 0.0 34.433804113860816" Properties=species:S:1:pos:R:3:initial_magmoms:R:1 pbc="T T T"
Si      -0.65844180       1.02312603       2.00108721       0.00000000
Si       0.47760651       1.51892847      -1.73260669       0.00000000
Si      -1.64838510      -1.45018467      -0.93291558       0.00000000
Si       1.97903952      -1.32493086       0.32639821       0.00000000
Si       1.16968716      -0.04593780      -3.48391095       0.00000000
Si      -0.33619302      -3.27776466      -1.72120909       0.00000000
Si       1.26242613       2.08458243       2.81252026       0.00000000
Si       1.29854106      -3.52102974      -0.04848282       0.00000000
Si      -1.09807632      -0.69915051       3.52750417       0.00000000
Si      -2.80751634      -2.52068202       0.83236881       0.00000000
