10
Lattice="16.28999089631971 0.0 0.0 0.0 16.28999089631971 0.0 0.0 0.0 34.433804113860816" Properties=species:S:1:pos:R:3:initial_magmoms:R:1 pbc="T T T"
Si       0.19394874      -0.20212632      -2.37858522       0.00000000
Si      -1.67583375      -1.07540064       1.40720706       0.00000000
Si       0.25497108       1.98791757       1.39136750       0.00000000
Si      -0.58407795      -2.49246774      -0.10557410       0.00000000
Si      -0.54183798       0.35407944       2.97928812       0.00000000
Si      -1.77911235       3.15131679       0.12237781       0.00000000
Si       0.49353813       2.02786065      -3.05551975       0.00000000
Si      -1.72691919      -1.26358272      -3.19001826       0.00000000
Si       2.21874687      -1.29469662      -2.94360982       0.00000000
Si      -2.16655371      -2.98585926      -1.66360131       0.00000000
