10
Lattice="16.28999089631971 0.0 0.0 0.0 16.28999089631971 0.0 0.0 0.0 34.433804113860816" Properties=species:S:1:pos:R:3:initial_magmoms:R:1 pbc="T T T"
Si       1.35549090       1.35666378      -1.35758792       0.00000000
Si      -1.35710361       1.35703845       1.35717471       0.00000000
Si      -1.35744570      -1.35770634      -1.35679594       0.00000000
Si       1.35734796      -1.35720135       1.35786339       0.00000000
Si      -0.00428427      -2.71033020      -2.71589895       0.00000000
Si       0.00102627      -2.71471221       2.71434943       0.00000000
Si      -2.71151448       0.00086337      -2.71755177       0.00000000
Si      -2.71441736       2.71469592       0.00024104       0.00000000
Si      -0.00166158       2.71682991      -2.71242113       0.00000000
Si      -2.71487348      -0.00029322       2.71455603       0.00000000
