10
Lattice="16.28999089631971 0.0 0.0 0.0 16.28999089631971 0.0 0.0 0.0 34.433804113860816" Properties=species:S:1:pos:R:3:initial_magmoms:R:1 pbc="T T T"
Si      -1.34149779       1.29932298      -1.44449889       0.00000000
Si      -1.89250704      -0.68486418       1.23903227       0.00000000
Si       1.36203948      -1.42522839      -1.41708957       0.00000000
Si       0.97666695       1.83444948       1.36237422       0.00000000
Si      -0.65829519       0.39724794       3.10892661       0.00000000
Si      -2.55826305       2.72945466      -0.02427585       0.00000000
Si      -2.65494420      -2.71031391       0.07234546       0.00000000
Si       2.75037102       2.64155382      -0.06518323       0.00000000
Si       0.00179190       2.65277763      -2.80191464       0.00000000
Si      -2.70902700      -0.06050106      -2.80232785       0.00000000
