10
Lattice="16.28999089631971 0.0 0.0 0.0 16.28999089631971 0.0 0.0 0.0 34.433804113860816" Properties=species:S:1:pos:R:3:initial_magmoms:R:1 pbc="T T T"
Si      -1.25977086      -2.06382897       0.24806126       0.00000000
Si       1.31781213       0.82710846       1.90870126       0.00000000
Si      -1.52767620       1.57747473      -1.22329601       0.00000000
Si       2.33331444      -0.79400718      -0.58355000       0.00000000
Si       0.37390437      -3.58370226      -0.52022620       0.00000000
Si       3.08180736      -0.90394839       1.92230262       0.00000000
Si      -1.06259670       0.85458969      -3.51744949       0.00000000
Si       2.40971454      -2.92172553       0.51137671       0.00000000
Si       2.35633221       2.86984188       1.23927330       0.00000000
Si       2.46145158      -1.60308261      -2.76930581       0.00000000
