10
Lattice="16.28999089631971 0.0 0.0 0.0 16.28999089631971 0.0 0.0 0.0 34.433804113860816" Properties=species:S:1:pos:R:3:initial_magmoms:R:1 pbc="T T T"
Si      -0.27746757       1.92643911      -1.36671288       0.00000000
Si      -1.64807559      -1.69298712      -0.31964918       0.00000000
Si      -0.12531897      -0.14274927       2.38998281       0.00000000
Si       2.23361964      -0.26660214      -0.87155450       0.00000000
Si       1.28998881      -0.93587679      -2.91296372       0.00000000
Si      -0.05514165       0.91601928      -3.48391095       0.00000000
Si      -3.20919516      -1.09503009       1.34236817       0.00000000
Si      -0.25031214      -3.62866266      -0.33442129       0.00000000
Si       3.27956796       1.81270233      -0.31451854       0.00000000
Si       1.56778218       3.34458528      -0.93122832       0.00000000
