10
Lattice="16.28999089631971 0.0 0.0 0.0 16.28999089631971 0.0 0.0 0.0 34.433804113860816" Properties=species:S:1:pos:R:3:initial_magmoms:R:1 pbc="T T T"
Si      -1.35681039       1.35672894      -1.35714028       0.00000000
Si       1.35755973      -1.35698144      -1.35676151       0.00000000
Si      -1.35742941      -1.35845079       1.35899971       0.00000000
Si       1.35839052       1.35923760       1.35810443       0.00000000
Si      -2.71407690       0.00068418      -2.71310981       0.00000000
Si       0.00037467      -2.71373395      -2.71397066       0.00000000
Si       2.71458189       0.00061902      -2.71424613       0.00000000
Si      -2.71456560       2.71467963       0.00006887       0.00000000
Si      -2.71485882      -2.71472121       0.00024104       0.00000000
Si       0.00250866      -2.71392119       2.71600225       0.00000000
