10
Lattice="16.28999089631971 0.0 0.0 0.0 16.28999089631971 0.0 0.0 0.0 34.433804113860816" Properties=species:S:1:pos:R:3:initial_magmoms:R:1 pbc="T T T"
Si       1.25011089       1.98465305       0.15495221       0.00000000
Si      -1.29554370       0.18033193      -1.98820896       0.00000000
Si       1.68425568      -1.67011337       0.51795357       0.00000000
Si      -1.09156032      -0.99879854       1.94041481       0.00000000
Si       2.20947786       1.27844897       2.32779533       0.00000000
Si       0.47731329       1.20015923      -3.32482668       0.00000000
Si       0.62022546      -2.53068149       2.55712459       0.00000000
Si       2.30769027       2.05321766      -1.97777551       0.00000000
Si       2.20146318      -2.83411532      -1.47741762       0.00000000
Si       3.49855443      -0.63251626       1.69631344       0.00000000
