10
Lattice="16.28999089631971 0.0 0.0 0.0 16.28999089631971 0.0 0.0 0.0 34.433804113860816" Properties=species:S:1:pos:R:3:initial_magmoms:R:1 pbc="T T T"
Si      -1.04980905       1.29753597      -1.61374113       0.00000000
Si      -1.84072113       0.18657426       1.44195079       0.00000000
Si       1.92891519       1.29769887       0.79425057       0.00000000
Si      -0.14721273      -2.25372380      -1.01469591       0.00000000
Si       3.30173865      -0.65953975       0.92475476       0.00000000
Si      -1.23067692       3.32503824      -0.52993654       0.00000000
Si      -1.09757133      -0.92819443       3.38429389       0.00000000
Si      -1.26641718      -3.39513152       0.71470844       0.00000000
Si      -3.74264379      -0.48268736       0.23580282       0.00000000
Si       0.41896251       1.50495654      -3.44816864       0.00000000
