10
Lattice="16.28999089631971 0.0 0.0 0.0 16.28999089631971 0.0 0.0 0.0 34.433804113860816" Properties=species:S:1:pos:R:3:initial_magmoms:R:1 pbc="T T T"
Si       0.55218213      -2.26647657      -0.37188529       0.00000000
Si       0.41954895      -0.05512536       2.34907543       0.00000000
Si       1.57737699       1.80933030      -0.28383801       0.00000000
Si      -2.37293172       0.38441142      -0.28621394       0.00000000
Si       1.16222634       0.87198741      -2.34377262       0.00000000
Si      -1.34974053      -2.93573819      -1.57803326       0.00000000
Si       0.12777876       3.68199612      -0.07089924       0.00000000
Si      -3.16684116      -1.88064792      -0.52659646       0.00000000
Si       1.34309421      -1.15551486      -3.42757721       0.00000000
Si       2.39290326      -2.45305083      -1.81383608       0.00000000
