10
Lattice="16.28999089631971 0.0 0.0 0.0 16.28999089631971 0.0 0.0 0.0 34.433804113860816" Properties=species:S:1:pos:R:3:initial_magmoms:R:1 pbc="T T T"
Si      -1.61295435       1.59858657       0.56023831       0.00000000
Si       0.98368794       0.45110268      -2.10783206       0.00000000
Si       0.82552833      -0.06240699       2.24153860       0.00000000
Si      -0.60219243      -2.29095134      -0.36406881       0.00000000
Si      -3.19543011       1.10519505      -0.99778890       0.00000000
Si      -1.61499060      -2.66995448       1.81497240       0.00000000
Si      -1.19775483      -0.79769361       3.39714946       0.00000000
Si       1.18987047       2.79635769      -2.27779742       0.00000000
Si       2.32642377      -2.01067959       2.39512210       0.00000000
Si      -3.35194443      -1.00309910      -1.97181846       0.00000000
