10
Lattice="16.28999089631971 0.0 0.0 0.0 16.28999089631971 0.0 0.0 0.0 34.433804113860816" Properties=species:S:1:pos:R:3:initial_magmoms:R:1 pbc="T T T"
Si       1.35221661      -1.35747828       1.35724358       0.00000000
Si       1.33810947       1.34674317      -1.38433267       0.00000000
Si      -1.36155078       1.35687555       1.35789782       0.00000000
Si      -1.34623818      -1.36456443      -1.37979774       0.00000000
Si       2.70899442      -2.71567332      -0.00141179       0.00000000
Si       2.70966231       2.71557558      -0.00623252       0.00000000
Si       2.71085148       0.00039096       2.71531357       0.00000000
Si      -0.00405621       2.71507059       2.71558905       0.00000000
Si      -0.00364896      -2.71529865       2.71552018       0.00000000
Si      -2.71715571       2.71494027      -0.00144622       0.00000000
