10
Lattice="16.28999089631971 0.0 0.0 0.0 16.28999089631971 0.0 0.0 0.0 34.433804113860816" Properties=species:S:1:pos:R:3:initial_magmoms:R:1 pbc="T T T"
Si       1.35703845       1.35754344       1.35665821       0.00000000
Si      -1.35865116      -1.35602847       1.35707141       0.00000000
Si      -1.35752715       1.35773892      -1.35707141       0.00000000
Si       1.35775521      -1.35795069      -1.35720915       0.00000000
Si       2.71112841       0.00130320       2.71428056       0.00000000
Si       0.00048870      -2.71399545      -2.71317868       0.00000000
Si      -0.00014661       2.71422351      -2.71483150       0.00000000
Si       2.71362078      -0.00013032      -2.71548574       0.00000000
Si       2.71456560      -2.71467963      -0.00006887       0.00000000
Si      -2.71332756       0.00218286      -2.71624329       0.00000000
