10
Lattice="16.28999089631971 0.0 0.0 0.0 16.28999089631971 0.0 0.0 0.0 34.433804113860816" Properties=species:S:1:pos:R:3:initial_magmoms:R:1 pbc="T T T"
Si      -1.35754344      -1.33990137       1.37022513       0.00000000
Si      -1.35408996       1.35624024      -1.35762235       0.00000000
Si       1.36513458       1.35070164       1.35610727       0.00000000
Si       1.36182771      -1.35674523      -1.35624500       0.00000000
Si       2.58766650      -0.14752224       2.71720743       0.00000000
Si      -2.70819621      -2.71500543       0.00519951       0.00000000
Si      -2.70958086       2.71513575       0.00192829       0.00000000
Si      -2.71112841      -0.00130320      -2.71428056       0.00000000
Si       0.00327429       2.71423980      -2.71400509       0.00000000
Si       0.00343719      -2.71598283      -2.71434943       0.00000000
