10
Lattice="16.28999089631971 0.0 0.0 0.0 16.28999089631971 0.0 0.0 0.0 34.433804113860816" Properties=species:S:1:pos:R:3:initial_magmoms:R:1 pbc="T T T"
Si      -0.15170877       2.06990514      -1.08890080       0.00000000
Si       2.22148359      -0.70120305      -0.27316352       0.00000000
Si      -1.87069473      -1.47673737      -0.28497432       0.00000000
Si      -0.17954838       0.61348140       2.32920711       0.00000000
Si       3.21434280       1.16033670       0.78212986       0.00000000
Si      -0.19010430       1.39154067      -3.30736873       0.00000000
Si      -0.71312733      -1.57260402       3.33612098       0.00000000
Si       1.28122479      -0.44450523      -3.56772287       0.00000000
Si      -2.15590005       3.11876937      -0.45621373       0.00000000
Si      -3.42865404      -0.30789729      -1.65516502       0.00000000
