10
Lattice="16.28999089631971 0.0 0.0 0.0 16.28999089631971 0.0 0.0 0.0 34.433804113860816" Properties=species:S:1:pos:R:3:initial_magmoms:R:1 pbc="T T T"
Si      -1.33810947      -1.34674317       1.38433267       0.00000000
Si       1.37155284       1.36883241       1.37810015       0.00000000
Si       1.41679017      -1.21785669      -1.51378319       0.00000000
Si      -1.46192976       1.24440939      -1.48859140       0.00000000
Si       0.42345855       2.30602869      -2.72305227       0.00000000
Si       2.27255274       0.62734419      -2.82507969       0.00000000
Si      -2.68434765      -2.71130760       0.00453493       0.00000000
Si      -2.69843850       2.71463076       0.00547153       0.00000000
Si       2.74106943      -2.68920207      -0.00471399       0.00000000
Si      -2.69966025       0.01013238       2.74223049       0.00000000
