10
Lattice="16.28999089631971 0.0 0.0 0.0 16.28999089631971 0.0 0.0 0.0 34.433804113860816" Properties=species:S:1:pos:R:3:initial_magmoms:R:1 pbc="T T T"
Si      -1.32514263      -1.36194174       1.33300217       0.00000000
Si       1.29007026      -1.40488218      -1.35645160       0.00000000
Si      -1.42915428       1.29762882      -1.35596953       0.00000000
Si       0.88440039       1.85199381       1.27604863       0.00000000
Si      -1.66939920       0.32004963       2.98740965       0.00000000
Si       0.22317300      -2.51048448       2.82663813       0.00000000
Si       2.64499101      -0.04180014      -2.71014850       0.00000000
Si      -0.07366338       2.67384060      -2.70680842       0.00000000
Si      -2.75721282       2.66181858       0.02637631       0.00000000
Si       2.51260218      -2.90310606       0.00464857       0.00000000
