10
Lattice="16.28999089631971 0.0 0.0 0.0 16.28999089631971 0.0 0.0 0.0 34.433804113860816" Properties=species:S:1:pos:R:3:initial_magmoms:R:1 pbc="T T T"
Si       2.05864875       1.16333406       0.03656872       0.00000000
Si       0.02386485      -1.64017494       1.72017608       0.00000000
Si      -1.55558097       1.81775223      -0.34805709       0.00000000
Si      -0.15877863      -1.63538568      -1.85935759       0.00000000
Si      -2.35432854      -1.67899401       1.90043714       0.00000000
Si      -2.49921180       1.14847758      -2.38946630       0.00000000
Si       3.87469053      -0.28645965       0.25088484       0.00000000
Si      -0.50963265       3.89705670       0.20897887       0.00000000
Si       2.43600660       2.69451261       1.84424115       0.00000000
Si       0.74339415      -0.94613949       3.90059464       0.00000000
