10
Lattice="16.28999089631971 0.0 0.0 0.0 16.28999089631971 0.0 0.0 0.0 34.433804113860816" Properties=species:S:1:pos:R:3:initial_magmoms:R:1 pbc="T T T"
Si       1.35647319      -1.35619137       1.36361384       0.00000000
Si      -1.35948307       1.36013355       1.36361384       0.00000000
Si       1.35660351       1.36262592      -1.37245989       0.00000000
Si      -1.36489026      -1.36252818      -1.38468390       0.00000000
Si      -2.71489370      -2.71331290       0.00364999       0.00000000
Si       2.70968349       2.72109789       0.00557828       0.00000000
Si      -2.71750010       2.71637379       0.00609479       0.00000000
Si       2.71716060      -2.71771446       0.00213490       0.00000000
Si      -0.00029648      -2.71435546       2.72102959       0.00000000
Si       2.71453791       0.00097740       2.72151166       0.00000000
