10
Lattice="16.28999089631971 0.0 0.0 0.0 16.28999089631971 0.0 0.0 0.0 34.433804113860816" Properties=species:S:1:pos:R:3:initial_magmoms:R:1 pbc="T T T"
Si      -1.35223290      -1.35606105       1.36430252       0.00000000
Si       1.36179513       1.35948195       1.36299403       0.00000000
Si      -1.42094412       1.31303916      -1.34964404       0.00000000
Si       1.35697329      -1.30391676      -1.45860987       0.00000000
Si       2.72621295      -2.69627193      -0.01071581       0.00000000
Si      -2.70857088      -2.72585457      -0.01159731       0.00000000
Si      -2.71013472       0.00127062       2.72509278       0.00000000
Si       0.00475668      -2.71419093       2.72536825       0.00000000
Si       0.00529425       2.71700086       2.72595363       0.00000000
Si       2.72741841       2.71665072      -0.01886974       0.00000000
