10
Lattice="16.28999089631971 0.0 0.0 0.0 16.28999089631971 0.0 0.0 0.0 34.433804113860816" Properties=species:S:1:pos:R:3:initial_magmoms:R:1 pbc="T T T"
Si       1.34636850       1.36925595      -1.38334442       0.00000000
Si      -1.36422234      -1.35684297      -1.38682224       0.00000000
Si      -1.66208499       1.07271279       1.33059180       0.00000000
Si       1.53937242      -1.28342394       1.49756141       0.00000000
Si      -2.71370223      -2.68565085      -0.01411787       0.00000000
Si       2.70513369       2.70529889      -0.01876643       0.00000000
Si       2.72609892      -2.69418681      -0.01181080       0.00000000
Si       2.70114264       0.00902466      -2.74186205       0.00000000
Si      -0.01431891      -2.70241326      -2.74461676       0.00000000
Si      -3.59295498      -0.76755222       1.15928353       0.00000000
