10
Lattice="16.28999089631971 0.0 0.0 0.0 16.28999089631971 0.0 0.0 0.0 34.433804113860816" Properties=species:S:1:pos:R:3:initial_magmoms:R:1 pbc="T T T"
Si       0.90762993       1.62868464      -1.54928101       0.00000000
Si      -1.19330766       1.10671232       1.82317629       0.00000000
Si      -2.07264186      -0.60013989      -1.20215364       0.00000000
Si       1.57727925      -1.70326611       1.26048454       0.00000000
Si      -1.26332208      -0.13214448      -3.43876820       0.00000000
Si       0.41775705       2.29003095       3.05721531       0.00000000
Si      -2.34090558      -0.55700397       3.05273547       0.00000000
Si      -0.64679445       2.19153998      -3.24039495       0.00000000
Si       2.88852651       0.77007717      -2.68576935       0.00000000
Si       2.00955069       3.48948809      -0.55882652       0.00000000
