10
Lattice="16.28999089631971 0.0 0.0 0.0 16.28999089631971 0.0 0.0 0.0 34.433804113860816" Properties=species:S:1:pos:R:3:initial_magmoms:R:1 pbc="T T T"
Si      -1.35663120      -1.35521782      -1.35703698       0.00000000
Si       1.35824830      -1.35460657       1.35872424       0.00000000
Si      -1.35358497       1.35780571       1.36123790       0.00000000
Si       1.35866021       1.35976051      -1.35693368       0.00000000
Si       2.70031415      -0.00198412       2.72251024       0.00000000
Si       2.71651781      -2.71035205       0.00127405       0.00000000
Si       0.00099369      -2.71255120      -2.71455603       0.00000000
Si      -2.71396287       0.00286052      -2.71424613       0.00000000
Si      -2.71423980      -2.71431052       0.00000000       0.00000000
Si       2.71343737       2.71730395       0.00020660       0.00000000
