10
Lattice="16.28999089631971 0.0 0.0 0.0 16.28999089631971 0.0 0.0 0.0 34.433804113860816" Properties=species:S:1:pos:R:3:initial_magmoms:R:1 pbc="T T T"
Si       1.35358497      -1.35780571      -1.36123790       0.00000000
Si      -1.35954711       1.36127385      -1.36061810       0.00000000
Si       1.35998694       1.37347506       1.34839409       0.00000000
Si      -1.35666378      -1.37584200       1.36185771       0.00000000
Si      -0.13370832       2.57049684       2.71283434       0.00000000
Si       2.71183327      -2.71241228      -0.00251367       0.00000000
Si      -2.71542897      -2.71188494      -0.00272027       0.00000000
Si       2.71224518       0.00195480      -2.71817158       0.00000000
Si       2.71336135       2.71705797      -0.00729997       0.00000000
Si      -0.00304623      -2.71302353      -2.71827488       0.00000000
