10
Lattice="16.28999089631971 0.0 0.0 0.0 16.28999089631971 0.0 0.0 0.0 34.433804113860816" Properties=species:S:1:pos:R:3:initial_magmoms:R:1 pbc="T T T"
Si      -1.35711013       1.35726651      -1.35755349       0.00000000
Si       1.35837423       1.35780408       1.35676151       0.00000000
Si       1.35791811      -1.35793440      -1.35755349       0.00000000
Si      -1.35996576      -1.35770634       1.35714028       0.00000000
Si      -2.71362675      -0.00014661       2.71087161       0.00000000
Si       2.71292031      -0.00171045       2.71596782       0.00000000
Si      -0.00009774       2.71480995      -2.71438386       0.00000000
Si      -2.71451496       2.71503801      -0.00092971       0.00000000
Si       2.71441899      -2.71552671      -0.00075754       0.00000000
Si      -2.71474293      -2.71524978       0.00000000       0.00000000
