10
Lattice="16.28999089631971 0.0 0.0 0.0 16.28999089631971 0.0 0.0 0.0 34.433804113860816" Properties=species:S:1:pos:R:3:initial_magmoms:R:1 pbc="T T T"
Si       1.37282346      -1.95723861       0.13050419       0.00000000
Si       0.62434683       1.86520500      -1.38052085       0.00000000
Si       0.99584028       1.08812313       1.92998137       0.00000000
Si      -1.92891519      -1.29769887      -0.79425057       0.00000000
Si       2.94993396       1.39888746      -1.13053129       0.00000000
Si       3.27141549       0.70328817       1.15553024       0.00000000
Si      -2.97872424      -0.00016290      -2.40799170       0.00000000
Si       2.44146605      -2.29417283      -1.94275631       0.00000000
Si       3.29728401      -1.60293111       1.42211690       0.00000000
Si       0.20310372       0.16474077       3.95926988       0.00000000
