10
Lattice="16.28999089631971 0.0 0.0 0.0 16.28999089631971 0.0 0.0 0.0 34.433804113860816" Properties=species:S:1:pos:R:3:initial_magmoms:R:1 pbc="T T T"
Si       0.33576948       1.86917976       1.38224254       0.00000000
Si       0.79273656       0.92338236      -2.02928851       0.00000000
Si       1.60805106      -1.40332811       1.10649648       0.00000000
Si      -2.34748674      -0.62063271      -0.03918569       0.00000000
Si       2.68220293       1.98969318       1.78284564       0.00000000
Si       0.43807068      -2.73069989       2.66948216       0.00000000
Si       0.83499282       3.29548329      -1.79644700       0.00000000
Si      -0.04059468       3.89617704       0.32756896       0.00000000
Si       2.78143020      -2.78631395      -0.40370215       0.00000000
Si      -0.20310372      -0.16474077      -3.95926988       0.00000000
