10
Lattice="16.28999089631971 0.0 0.0 0.0 16.28999089631971 0.0 0.0 0.0 34.433804113860816" Properties=species:S:1:pos:R:3:initial_magmoms:R:1 pbc="T T T"
Si       1.35679410       1.35562122      -1.35810443       0.00000000
Si      -1.36182771       1.35674523       1.35624500       0.00000000
Si      -1.35839052      -1.35923760      -1.35810443       0.00000000
Si       1.35954711      -1.36127385       1.36061810       0.00000000
Si       0.00330687       2.70744687       2.71235227       0.00000000
Si       2.71953405       0.01220121       2.70901218       0.00000000
Si      -0.00070047       2.71318095      -2.71545131       0.00000000
Si       2.71634121       2.71249677      -0.00044764       0.00000000
Si      -2.71591767       2.71298547      -0.00137735       0.00000000
Si       2.71417464      -0.00190593      -2.71524471       0.00000000
