10
Lattice="16.28999089631971 0.0 0.0 0.0 16.28999089631971 0.0 0.0 0.0 34.433804113860816" Properties=species:S:1:pos:R:3:initial_magmoms:R:1 pbc="T T T"
Si       0.15208344       2.27610396      -0.35342876       0.00000000
Si      -2.10435849      -0.94265343      -0.44578028       0.00000000
Si       0.57930498      -0.12689910       2.28155070       0.00000000
Si       1.51185861      -0.00750969      -1.86345522       0.00000000
Si      -3.26950074       0.27028368       1.25469966       0.00000000
Si       0.18507069      -1.33527501      -3.26776984       0.00000000
Si       2.08630917       2.70313002       0.96218433       0.00000000
Si      -1.70608428      -3.21492924       0.16238991       0.00000000
Si      -1.98511569       3.02728473       0.49622583       0.00000000
Si       2.80658781       0.82293822       2.27369979       0.00000000
