10
Lattice="16.28999089631971 0.0 0.0 0.0 16.28999089631971 0.0 0.0 0.0 34.433804113860816" Properties=species:S:1:pos:R:3:initial_magmoms:R:1 pbc="T T T"
Si      -1.35337441      -1.34358291       1.35569406       0.00000000
Si       1.35366099      -1.35755973      -1.35373133       0.00000000
Si      -1.35656725       1.35671265      -1.35376577       0.00000000
Si       1.35431748       1.33731126       1.37580341       0.00000000
Si      -0.09272389       2.61646722       2.71844705       0.00000000
Si       0.07138110      -2.59069644       2.76011198       0.00000000
Si       2.71362675       0.00014661      -2.71087161       0.00000000
Si      -0.00111617      -2.71510317      -2.71087161       0.00000000
Si      -0.00088821       2.71518462      -2.71180132       0.00000000
Si      -2.71611436      -0.00016290      -2.71142255       0.00000000
