10
Lattice="16.28999089631971 0.0 0.0 0.0 16.28999089631971 0.0 0.0 0.0 34.433804113860816" Properties=species:S:1:pos:R:3:initial_magmoms:R:1 pbc="T T T"
Si       0.29594043      -2.23052454       0.64801012       0.00000000
Si      -0.57930498       0.12689910      -2.28155070       0.00000000
Si      -1.63494585       0.85740786       1.50561893       0.00000000
Si       2.22728283       0.94983732      -0.00785091       0.00000000
Si       0.09083304       0.16490367       3.09828656       0.00000000
Si       2.11776516       1.29494097       2.35403390       0.00000000
Si       1.50700419       2.83002912      -1.31936638       0.00000000
Si      -0.42722154       2.40300306      -2.63497946       0.00000000
Si       0.80827722      -2.13628689       2.91558069       0.00000000
Si       3.49196580      -0.98318295      -0.87813136       0.00000000
