10
Lattice="16.28999089631971 0.0 0.0 0.0 16.28999089631971 0.0 0.0 0.0 34.433804113860816" Properties=species:S:1:pos:R:3:initial_magmoms:R:1 pbc="T T T"
Si       0.68465241      -0.15122007      -2.19009447       0.00000000
Si       1.81584630      -0.85739157       1.17054339       0.00000000
Si      -1.47132909       1.83604590       0.26035414       0.00000000
Si      -1.96669170      -1.35293337      -0.25653198       0.00000000
Si       0.94025880      -0.25669782       3.29455935       0.00000000
Si      -3.41628993       0.51973245      -0.04359322       0.00000000
Si       1.40209659      -2.45241063      -2.37280033       0.00000000
Si       1.77359004      -3.22949250       0.93770188       0.00000000
Si      -1.43293356       2.51441037       2.47882208       0.00000000
Si      -1.28122479       0.44450523       3.56772287       0.00000000
