10
Lattice="16.28999089631971 0.0 0.0 0.0 16.28999089631971 0.0 0.0 0.0 34.433804113860816" Properties=species:S:1:pos:R:3:initial_magmoms:R:1 pbc="T T T"
Si       1.35456237      -1.35506736      -1.35741575       0.00000000
Si      -1.35855342      -1.35527913       1.35765679       0.00000000
Si       1.35614250       1.35984033       1.35796669       0.00000000
Si      -1.35974259       1.35990549      -1.36388931       0.00000000
Si       2.71257940      -2.71130760       0.00010330       0.00000000
Si      -0.00105885      -2.71283886       2.71500367       0.00000000
Si       2.71416731       0.00250866       2.71462490       0.00000000
Si      -2.71718829      -2.71314837      -0.00041321       0.00000000
Si      -2.71640637       0.00252495       2.71534801       0.00000000
Si       2.71460278       2.71792134       0.00061981       0.00000000
