10
Lattice="16.28999089631971 0.0 0.0 0.0 16.28999089631971 0.0 0.0 0.0 34.433804113860816" Properties=species:S:1:pos:R:3:initial_magmoms:R:1 pbc="T T T"
Si       1.35407367       1.35495333       1.35810443       0.00000000
Si      -1.35492075      -1.36308204       1.35369690       0.00000000
Si      -1.35977517       1.35648459      -1.35827660       0.00000000
Si       1.35811359      -1.35803214      -1.35910301       0.00000000
Si       2.62195695      -0.09827757       2.71310981       0.00000000
Si      -2.64499101       0.04180014       2.71014850       0.00000000
Si       2.71468084      -2.71474479      -0.00533724       0.00000000
Si       2.71827972       2.71236645       0.00141179       0.00000000
Si       2.71379264       0.00043983      -2.71713857       0.00000000
Si      -0.00122175       2.71510317      -2.71638102       0.00000000
