10
Lattice="16.28999089631971 0.0 0.0 0.0 16.28999089631971 0.0 0.0 0.0 34.433804113860816" Properties=species:S:1:pos:R:3:initial_magmoms:R:1 pbc="T T T"
Si       0.58096656       2.24373573      -0.39540359       0.00000000
Si       1.19824353      -0.92172078      -1.81108137       0.00000000
Si      -2.24873676      -0.69313950      -0.34451040       0.00000000
Si       0.93068028      -0.37291068       2.18723646       0.00000000
Si       2.99271639       2.10947355      -0.38486684       0.00000000
Si       3.10995878       0.43987887      -1.96372651       0.00000000
Si      -2.65163733      -2.38439988       1.22959740       0.00000000
Si      -0.92237238      -0.08171064       3.68593419       0.00000000
Si      -0.55612431       2.94751260      -2.40086390       0.00000000
Si      -3.95351784       0.75232107       0.29740493       0.00000000
