10
Lattice="16.28999089631971 0.0 0.0 0.0 16.28999089631971 0.0 0.0 0.0 34.433804113860816" Properties=species:S:1:pos:R:3:initial_magmoms:R:1 pbc="T T T"
Si       1.35293337      -1.35469269       1.35565963       0.00000000
Si      -1.35721764      -1.35646830      -1.35779452       0.00000000
Si      -1.35477414       1.36023129       1.35851763       0.00000000
Si       1.35760860       1.35909270      -1.35703698       0.00000000
Si       0.00399105       2.69627423       2.72309562       0.00000000
Si       2.71547784      -2.71099809       0.00123962       0.00000000
Si      -2.71546155      -2.71143792      -0.00275471       0.00000000
Si       0.00045612      -2.71342530      -2.71465933       0.00000000
Si       2.71423980       2.71431052       0.00000000       0.00000000
Si       2.71523349       0.00175932      -2.71455603       0.00000000
