10
Lattice="16.28999089631971 0.0 0.0 0.0 16.28999089631971 0.0 0.0 0.0 34.433804113860816" Properties=species:S:1:pos:R:3:initial_magmoms:R:1 pbc="T T T"
Si      -2.24648874      -0.22356396       0.55562417       0.00000000
Si       0.56439963      -1.64221119      -1.58175211       0.00000000
Si       0.95369805       1.90874395      -1.07888055       0.00000000
Si       1.12368420      -0.56860245       2.04812381       0.00000000
Si       2.87815860       2.26305145       0.21273216       0.00000000
Si       2.56540851       1.24440939       2.34618299       0.00000000
Si      -0.57269124      -0.93843432      -3.58721242       0.00000000
Si      -2.36441205      -2.03470245       2.08572555       0.00000000
Si       2.97614946      -1.77647337      -1.57121536       0.00000000
Si      -3.61445778      -0.82684782      -1.28892688       0.00000000
