10
Lattice="16.28999089631971 0.0 0.0 0.0 16.28999089631971 0.0 0.0 0.0 34.433804113860816" Properties=species:S:1:pos:R:3:initial_magmoms:R:1 pbc="T T T"
Si      -0.15956055      -0.84488085      -2.18203695       0.00000000
Si       2.32788987       0.41475969      -0.01181080       0.00000000
Si      -0.28968507      -1.92257838       1.35903414       0.00000000
Si      -1.72494810       1.58762340       0.39860594       0.00000000
Si       1.26591219      -2.77783596      -1.76817683       0.00000000
Si       2.42690049       2.48984505       1.15160479       0.00000000
Si       1.82718414      -3.14335098       0.53940584       0.00000000
Si      -2.55728565      -2.54422107       0.81239719       0.00000000
Si      -2.95340958       1.74728169      -1.65537162       0.00000000
Si      -2.53426788       1.11962799       2.63522050       0.00000000
