10
Lattice="16.28999089631971 0.0 0.0 0.0 16.28999089631971 0.0 0.0 0.0 34.433804113860816" Properties=species:S:1:pos:R:3:initial_magmoms:R:1 pbc="T T T"
Si      -0.10813465       2.14161372       0.93963017       0.00000000
Si       0.80696099       0.38527479      -2.18682325       0.00000000
Si       1.93854584      -0.82129293       1.11028420       0.00000000
Si      -2.09885640      -0.91694781       0.77083557       0.00000000
Si       0.19337045       1.55009124       3.16033631       0.00000000
Si       1.19423945      -0.59502483       3.35006667       0.00000000
Si       2.36843894       2.13789960      -1.74365995       0.00000000
Si      -1.20311817       0.91926099      -3.33405495       0.00000000
Si       0.13446255      -3.67388370      -0.23645706       0.00000000
Si       1.90267526       3.16913805       0.33858779       0.00000000
