10
Lattice="16.28999089631971 0.0 0.0 0.0 16.28999089631971 0.0 0.0 0.0 34.433804113860816" Properties=species:S:1:pos:R:3:initial_magmoms:R:1 pbc="T T T"
Si      -0.07741822       1.02866463       2.08865242       0.00000000
Si       0.75916450      -2.20356459       0.29936766       0.00000000
Si      -2.34643345      -0.12051342      -0.40060310       0.00000000
Si       1.44588574       1.62771309      -1.00006153       0.00000000
Si      -1.07415187      -3.39302129      -0.67634916       0.00000000
Si      -2.72279761       1.90648386      -1.45527668       0.00000000
Si       2.17896832       1.63118286       2.50141066       0.00000000
Si      -1.07478718       3.13028640       1.75381793       0.00000000
Si      -2.68220293      -1.98969318      -1.78284564       0.00000000
Si       0.98096588      -2.67861357       2.63790634       0.00000000
