10
Lattice="16.28999089631971 0.0 0.0 0.0 16.28999089631971 0.0 0.0 0.0 34.433804113860816" Properties=species:S:1:pos:R:3:initial_magmoms:R:1 pbc="T T T"
Si       1.35740483      -1.35777150      -1.35662377       0.00000000
Si      -1.35802481       1.35733167      -1.35665821       0.00000000
Si       1.35698944       1.35718506       1.35789782       0.00000000
Si      -1.35567905      -1.35847197       1.35803556       0.00000000
Si       0.00088821      -2.71518462       2.71180132       0.00000000
Si       2.71441722      -0.00022806      -2.71345415       0.00000000
Si      -0.00158791      -2.71381626      -2.71452160       0.00000000
Si      -2.71416731      -0.00250866      -2.71462490       0.00000000
Si       2.71475931       2.71451673       0.00051651       0.00000000
Si       0.00043547       2.71541268      -2.71400509       0.00000000
