10
Lattice="16.28999089631971 0.0 0.0 0.0 16.28999089631971 0.0 0.0 0.0 34.433804113860816" Properties=species:S:1:pos:R:3:initial_magmoms:R:1 pbc="T T T"
Si       1.35316143      -1.35262386      -1.35910301       0.00000000
Si      -1.35701239      -1.35754344       1.35683038       0.00000000
Si       1.35744570       1.35770634       1.35679594       0.00000000
Si      -1.35406878       1.35856971      -1.36075583       0.00000000
Si      -0.00459378       2.72082096      -2.68758057       0.00000000
Si       2.70184311       0.00850338      -2.72040634       0.00000000
Si       2.71293660       2.71437012      -0.00079198       0.00000000
Si      -2.71441722       0.00022806       2.71345415       0.00000000
Si       0.00034209       2.71474479       2.71397066       0.00000000
Si       0.00009774      -2.71480995       2.71438386       0.00000000
