10
Lattice="16.28999089631971 0.0 0.0 0.0 16.28999089631971 0.0 0.0 0.0 34.433804113860816" Properties=species:S:1:pos:R:3:initial_magmoms:R:1 pbc="T T T"
Si      -1.35250236       1.35474156       1.36065253       0.00000000
Si      -1.35698944      -1.35718506      -1.35789782       0.00000000
Si       1.35760697      -1.35606105       1.35862093       0.00000000
Si       1.35776987       1.35733167      -1.35738132       0.00000000
Si      -2.71266849      -2.71565703       0.00013774       0.00000000
Si       0.00045612       2.71498914      -2.71431499       0.00000000
Si       2.71487348       0.00029322      -2.71455603       0.00000000
Si       0.00041539      -2.71495656      -2.71452160       0.00000000
Si      -2.71501425       0.00014661      -2.71455603       0.00000000
Si       2.71589975      -2.71441899      -0.00020660       0.00000000
