10
Lattice="16.28999089631971 0.0 0.0 0.0 16.28999089631971 0.0 0.0 0.0 34.433804113860816" Properties=species:S:1:pos:R:3:initial_magmoms:R:1 pbc="T T T"
Si       1.35755159      -1.35624349       1.35745018       0.00000000
Si      -1.35770359      -1.35785528      -1.35669264       0.00000000
Si       1.35676967       1.35816409      -1.35741575       0.00000000
Si      -1.35782665       1.35801748       1.35803556       0.00000000
Si       0.00120220      -2.71141090      -2.71472820       0.00000000
Si       0.00003095      -2.71209508       2.71624329       0.00000000
Si       2.71429681      -2.71440826       0.00024104       0.00000000
Si      -2.71549317      -2.71429423       0.00041321       0.00000000
Si       2.71646338      -0.00079658       2.71341971       0.00000000
Si       2.71483438       2.71533286       0.00048207       0.00000000
