10
Lattice="16.28999089631971 0.0 0.0 0.0 16.28999089631971 0.0 0.0 0.0 34.433804113860816" Properties=species:S:1:pos:R:3:initial_magmoms:R:1 pbc="T T T"
Si      -2.01080991      -1.02752433       0.60104239       0.00000000
Si      -0.38434626       2.32860663      -0.18356671       0.00000000
Si       0.46576368      -1.03123845      -2.08224773       0.00000000
Si       1.75128903      -0.73037844       1.53578296       0.00000000
Si      -2.20790099       2.34046575       1.28111040       0.00000000
Si       2.61583191      -1.73242521      -1.60527041       0.00000000
Si       2.11045095      -2.83380840       0.44102841       0.00000000
Si      -1.70930481      -1.61904681       2.82174852       0.00000000
Si      -1.90267526      -3.16913805      -0.33858779       0.00000000
Si       1.80711486       3.27000573      -0.01170750       0.00000000
