10
Lattice="16.28999089631971 0.0 0.0 0.0 16.28999089631971 0.0 0.0 0.0 34.433804113860816" Properties=species:S:1:pos:R:3:initial_magmoms:R:1 pbc="T T T"
Si      -2.17495513      -0.00480555       0.78980861       0.00000000
Si      -0.30150509       0.59152248      -2.22070614       0.00000000
Si       1.09968414       1.49302737       1.40582971       0.00000000
Si       1.00086900      -2.14511607       0.18973037       0.00000000
Si      -1.51980391      -0.64254276       2.94360982       0.00000000
Si       3.27268869       0.68437548       1.09575313       0.00000000
Si      -0.19337045      -1.55009124      -3.16033631       0.00000000
Si       1.74517539      -2.37138417      -2.05005211       0.00000000
Si       2.79102597      -1.63600470       1.64869146       0.00000000
Si       0.18000124       1.02640032       3.50794575       0.00000000
