10
Lattice="16.28999089631971 0.0 0.0 0.0 16.28999089631971 0.0 0.0 0.0 34.433804113860816" Properties=species:S:1:pos:R:3:initial_magmoms:R:1 pbc="T T T"
Si       1.34206585       1.35262245       1.36378601       0.00000000
Si       1.35826951      -1.35574548      -1.35745018       0.00000000
Si      -1.35824830       1.35460657      -1.35872424       0.00000000
Si      -1.36101760      -1.35489840       1.39109203       0.00000000
Si       2.64157291      -0.02723082       2.77660578       0.00000000
Si      -2.71183327       2.71241228       0.00251367       0.00000000
Si       2.71479646       2.71394354       0.00533724       0.00000000
Si       0.00041191       2.71436708      -2.71565791       0.00000000
Si      -2.71487950      -0.00061125      -2.71576121       0.00000000
Si       0.00055912      -2.71600935      -2.71586452       0.00000000
