10
Lattice="16.28999089631971 0.0 0.0 0.0 16.28999089631971 0.0 0.0 0.0 34.642051614445585" Properties=species:S:1:pos:R:3:initial_magmoms:R:1 pbc="T T T"
Si       1.61013618       1.23898808      -1.32817150       0.00000000
Si       1.43767395      -1.24056888       1.53458832       0.00000000
Si      -1.28076867       1.47791351       1.52090123       0.00000000
Si      -0.87804729      -1.77960498      -1.53889922       0.00000000
Si      -2.60003061      -2.50817523       0.05175872       0.00000000
Si       2.76297948      -2.52325977      -0.02453005       0.00000000
Si       3.54840183      -0.41433615      -1.39187827       0.00000000
Si       0.08607636      -2.59373031       2.92287624       0.00000000
Si      -2.62984131       0.12122529       2.91885776       0.00000000
Si       2.73432537       2.86013630       0.11482807       0.00000000
