10
Lattice="16.28999089631971 0.0 0.0 0.0 16.28999089631971 0.0 0.0 0.0 34.642051614445585" Properties=species:S:1:pos:R:3:initial_magmoms:R:1 pbc="T T T"
Si       1.36971207      -1.27442241       1.28944717       0.00000000
Si      -1.33701804      -1.37087748      -1.32138716       0.00000000
Si      -1.25670834       1.36663163       1.41533645       0.00000000
Si       1.37819916       1.34087714      -1.32436637       0.00000000
Si      -0.26976240      -2.45329911       2.50153859       0.00000000
Si       2.27418174       0.44680049       2.75546497       0.00000000
Si       0.54977121       2.29975541       2.75331716       0.00000000
Si      -2.66709654       2.70376370       0.03512706       0.00000000
Si      -2.69158041      -0.01854291      -2.68063809       0.00000000
Si       0.02396259       2.69651465      -2.68060345       0.00000000
