10
Lattice="16.28999089631971 0.0 0.0 0.0 16.28999089631971 0.0 0.0 0.0 34.642051614445585" Properties=species:S:1:pos:R:3:initial_magmoms:R:1 pbc="T T T"
Si       1.39310451      -1.71076995       0.83605174       0.00000000
Si       1.57481946       0.98311453      -1.55910105       0.00000000
Si       0.06685416       1.27898980       2.06348960       0.00000000
Si      -2.13079716      -0.38281500      -1.11724143       0.00000000
Si       3.03518538      -0.22637561       1.60756530       0.00000000
Si       1.46715885      -0.60668847      -3.31763650       0.00000000
Si      -2.43066348      -2.72218347      -0.81897320       0.00000000
Si       3.60562860       1.06805059      -0.30883406       0.00000000
Si       0.84747096       3.23559799      -1.84853555       0.00000000
Si      -1.72108737       0.10286809      -3.44255580       0.00000000
