10
Lattice="16.28999089631971 0.0 0.0 0.0 16.28999089631971 0.0 0.0 0.0 34.642051614445585" Properties=species:S:1:pos:R:3:initial_magmoms:R:1 pbc="T T T"
Si      -2.18199663       0.09487296       0.88576311       0.00000000
Si       1.19861820       1.59821190       1.28570582       0.00000000
Si       0.70995078      -1.77624902       1.43380068       0.00000000
Si       0.17581797       0.79576650      -2.31644600       0.00000000
Si      -1.15255008      -2.81280149      -1.10151393       0.00000000
Si      -1.69266132      -2.07414773       1.84888197       0.00000000
Si       2.43225990       1.41309234      -1.95360495       0.00000000
Si       3.26362005       1.50934995       0.26494256       0.00000000
Si      -3.30120108       1.06204284      -1.03254157       0.00000000
Si      -1.66733037       2.26079136      -2.29798178       0.00000000
