10
Lattice="16.28999089631971 0.0 0.0 0.0 16.28999089631971 0.0 0.0 0.0 34.642051614445585" Properties=species:S:1:pos:R:3:initial_magmoms:R:1 pbc="T T T"
Si       2.06500185      -0.08886195      -1.02076326       0.00000000
Si      -1.19861820      -1.59821190      -1.28570582       0.00000000
Si      -0.44872434       2.24011935      -0.68903079       0.00000000
Si       1.06254783      -0.62141463       2.06795843       0.00000000
Si      -0.48866742      -3.37446092       0.14809485       0.00000000
Si       1.23364170      -0.18511956      -3.23931077       0.00000000
Si      -1.42141653       3.10853925       1.25331549       0.00000000
Si       1.09229337      -2.95595082       1.87029077       0.00000000
Si       3.05484741       2.01854277      -0.65833792       0.00000000
Si      -3.38061483      -1.50333894      -0.39994271       0.00000000
