10
Lattice="16.28999089631971 0.0 0.0 0.0 16.28999089631971 0.0 0.0 0.0 34.642051614445585" Properties=species:S:1:pos:R:3:initial_magmoms:R:1 pbc="T T T"
Si       1.50882867      -1.20847712      -1.34504769       0.00000000
Si       1.58096079       0.41851010       1.72219592       0.00000000
Si      -0.70995078       1.77624902      -1.43380068       0.00000000
Si      -2.40261210      -0.29789870       0.41508129       0.00000000
Si      -1.86250086      -1.03655246      -2.53531461       0.00000000
Si       0.48866742       3.37446092      -0.14809485       0.00000000
Si      -2.39316390      -2.39616473      -0.63415775       0.00000000
Si      -2.89194741       1.87112198      -0.54803756       0.00000000
Si       0.22442733      -1.79252249      -3.15883724       0.00000000
Si       1.55121525       2.75304629       1.91986357       0.00000000
