10
Lattice="16.28999089631971 0.0 0.0 0.0 16.28999089631971 0.0 0.0 0.0 34.642051614445585" Properties=species:S:1:pos:R:3:initial_magmoms:R:1 pbc="T T T"
Si      -1.18506492      -1.83648314      -0.91153681       0.00000000
Si       1.45958400      -1.23439430       1.44970139       0.00000000
Si       1.88810874       1.18106735      -0.96114426       0.00000000
Si      -1.30440546       2.08262111       0.14473457       0.00000000
Si      -0.01858689      -0.15700954       2.84868678       0.00000000
Si      -2.26703857      -0.22225261      -2.33833979       0.00000000
Si      -0.82723878       2.04948725       2.50347854       0.00000000
Si       0.47772054       2.51819942      -2.34135365       0.00000000
Si      -3.33079024       1.38391043      -0.99502420       0.00000000
Si       0.42523416      -2.91579338      -2.33858229       0.00000000
