10
Lattice="16.28999089631971 0.0 0.0 0.0 16.28999089631971 0.0 0.0 0.0 34.642051614445585" Properties=species:S:1:pos:R:3:initial_magmoms:R:1 pbc="T T T"
Si       1.35423657      -1.35563751       1.35623708       0.00000000
Si       1.35627282       1.35589815      -1.35679135       0.00000000
Si      -1.35975888       1.35518139       1.35855810       0.00000000
Si      -1.35870003      -1.35861858      -1.35699920       0.00000000
Si      -0.02396259      -2.69651465       2.68060345       0.00000000
Si      -2.69105913       0.00724905       2.71573051       0.00000000
Si       2.71290402      -0.00140094      -2.71403305       0.00000000
Si      -0.00169416       2.71386513      -2.71399841       0.00000000
Si       2.71223613      -2.71566680       0.00117783       0.00000000
Si       2.71500543       2.71433754       0.00114319       0.00000000
