10
Lattice="16.28999089631971 0.0 0.0 0.0 16.28999089631971 0.0 0.0 0.0 34.642051614445585" Properties=species:S:1:pos:R:3:initial_magmoms:R:1 pbc="T T T"
Si       1.63209510      -1.48333482       0.88091322       0.00000000
Si      -0.82929132      -1.46248362      -1.70678019       0.00000000
Si       0.83289141       1.98896013      -1.14738003       0.00000000
Si      -1.37334474       1.20642111       1.62727664       0.00000000
Si      -1.18408752       2.16205767      -2.47469098       0.00000000
Si       1.73569950       2.99726226       0.90519731       0.00000000
Si       0.28763253       2.46940110       2.79942576       0.00000000
Si      -3.16364832      -1.02486906      -1.83277341       0.00000000
Si       0.64653381      -2.80176597       2.56808601       0.00000000
Si      -3.25267317       1.36533006      -1.65014041       0.00000000
