10
Lattice="16.28999089631971 0.0 0.0 0.0 16.28999089631971 0.0 0.0 0.0 34.642051614445585" Properties=species:S:1:pos:R:3:initial_magmoms:R:1 pbc="T T T"
Si      -1.12534578      -1.25415081       1.66877784       0.00000000
Si       1.66097727       1.26297999       1.17214911       0.00000000
Si      -1.85513778       1.14404670      -1.10380031       0.00000000
Si       1.37334474      -1.20642111      -1.62727664       0.00000000
Si       2.20623615       0.78253902      -2.77465667       0.00000000
Si       3.10904424       1.79084115      -0.72207933       0.00000000
Si      -2.84631912       0.19653885       2.32974856       0.00000000
Si      -1.87932843       0.15890895      -3.27741705       0.00000000
Si       2.21257296      -0.16042392       3.09055772       0.00000000
Si      -2.07971172      -3.16048806       0.59643254       0.00000000
