10
Lattice="16.28999089631971 0.0 0.0 0.0 16.28999089631971 0.0 0.0 0.0 34.642051614445585" Properties=species:S:1:pos:R:3:initial_magmoms:R:1 pbc="T T T"
Si      -1.71543474       1.66112388      -0.29885715       0.00000000
Si      -0.68362614      -1.97314254      -1.27306147       0.00000000
Si      -1.00664055      -0.09542682       2.32645756       0.00000000
Si       2.10805632       0.59917878      -1.32031325       0.00000000
Si       1.32173802       1.27221642       1.85096049       0.00000000
Si      -0.11173311      -3.31496613       1.02647921       0.00000000
Si       0.66873708       1.88478558      -2.92763606       0.00000000
Si      -2.06643537      -0.82477899      -2.94280929       0.00000000
Si      -0.74010357       3.24571734      -1.68246146       0.00000000
Si      -0.33278841      -2.15865306       3.07129673       0.00000000
