10
Lattice="16.28999089631971 0.0 0.0 0.0 16.28999089631971 0.0 0.0 0.0 34.642051614445585" Properties=species:S:1:pos:R:3:initial_magmoms:R:1 pbc="T T T"
Si      -2.05638444      -0.93709854      -0.59009304       0.00000000
Si       0.67254894      -1.66961097       1.49494393       0.00000000
Si       1.49664375       0.12523752      -1.87226537       0.00000000
Si      -0.32332392       2.10724182       1.20100596       0.00000000
Si      -3.18332664      -0.64003410       1.51891624       0.00000000
Si      -2.97326709       0.62447715      -2.06882448       0.00000000
Si       2.91061575      -2.15133885       1.00513969       0.00000000
Si       3.50906148       0.96285303      -0.98078631       0.00000000
Si      -1.62025227       3.48188976      -0.41400739       0.00000000
Si       1.77925896       2.80204290       2.14954050       0.00000000
