10
Lattice="16.28999089631971 0.0 0.0 0.0 16.28999089631971 0.0 0.0 0.0 34.642051614445585" Properties=species:S:1:pos:R:3:initial_magmoms:R:1 pbc="T T T"
Si      -2.23806681       0.48172788       0.48980424       0.00000000
Si       0.44015580      -1.54714275       1.72198806       0.00000000
Si       1.69689672       1.59140268      -0.45426148       0.00000000
Si      -0.22270059      -1.22349303      -2.02264660       0.00000000
Si       2.20069755      -2.66520690       0.66394993       0.00000000
Si      -3.07045323      -1.77759738       0.32023130       0.00000000
Si       1.40581071      -2.86759386      -1.59142210       0.00000000
Si       0.59844573       3.11419188      -1.98592600       0.00000000
Si      -2.09776104      -2.64601728      -1.62211497       0.00000000
Si      -2.91061575       2.15133885      -1.00513969       0.00000000
