10
Lattice="16.28999089631971 0.0 0.0 0.0 16.28999089631971 0.0 0.0 0.0 34.642051614445585" Properties=species:S:1:pos:R:3:initial_magmoms:R:1 pbc="T T T"
Si       0.96158241      -1.40566410      -1.60261149       0.00000000
Si       1.64208087       1.48439434       0.77151356       0.00000000
Si      -0.56769021      -1.37477826       1.81884729       0.00000000
Si      -1.39310451       1.71076995      -0.83605174       0.00000000
Si      -1.32625035       2.98975976       1.22743786       0.00000000
Si       0.18171495       2.69388449      -2.39515279       0.00000000
Si      -2.65461840      -0.61880823       2.44236993       0.00000000
Si       2.55932190       0.34111260       2.62105373       0.00000000
Si       0.23654709      -3.58161714      -0.84807254       0.00000000
Si       2.21252409       2.77882055      -1.14488580       0.00000000
