10
Lattice="16.28999089631971 0.0 0.0 0.0 16.28999089631971 0.0 0.0 0.0 34.642051614445585" Properties=species:S:1:pos:R:3:initial_magmoms:R:1 pbc="T T T"
Si       0.98326440       2.16518535      -0.15907639       0.00000000
Si       1.81802916      -1.28607921       0.88545133       0.00000000
Si      -0.46467225      -1.04428674      -2.12245040       0.00000000
Si      -2.28477024       0.95544108       0.81384617       0.00000000
Si      -1.24322022      -0.02155167       2.71126168       0.00000000
Si       0.65422269      -1.80600714       2.87584413       0.00000000
Si      -2.52279646      -0.03847698      -2.51546470       0.00000000
Si      -0.97235010       3.34110736      -1.02814202       0.00000000
Si       1.69301970       2.37056967       2.35441371       0.00000000
Si       2.90605455       1.77293844      -1.75960935       0.00000000
