10
Lattice="16.28999089631971 0.0 0.0 0.0 16.28999089631971 0.0 0.0 0.0 34.642051614445585" Properties=species:S:1:pos:R:3:initial_magmoms:R:1 pbc="T T T"
Si      -1.35672894       1.35663463      -1.35713777       0.00000000
Si      -1.35671265      -1.35805381       1.35686064       0.00000000
Si       1.35671265       1.35745402       1.35772669       0.00000000
Si       1.35705474      -1.35767914      -1.35738027       0.00000000
Si      -2.71339272      -0.00147148      -2.71469125       0.00000000
Si      -2.71422351       2.71450224      -0.00045035       0.00000000
Si      -0.00068418       2.71466514      -2.71413698       0.00000000
Si      -0.00070047      -2.71475017      -2.71455268       0.00000000
Si       2.71526607       2.71461627      -0.00013857       0.00000000
Si      -0.00128691       2.71748331       2.71278594       0.00000000
