10
Lattice="16.28999089631971 0.0 0.0 0.0 16.28999089631971 0.0 0.0 0.0 34.642051614445585" Properties=species:S:1:pos:R:3:initial_magmoms:R:1 pbc="T T T"
Si      -1.35788553       1.35710361      -1.35734562       0.00000000
Si       1.35728280      -1.35765584      -1.35772669       0.00000000
Si      -1.35855342      -1.35716225       1.35786526       0.00000000
Si       1.35816246       1.36011726       1.35699920       0.00000000
Si      -0.00034209       2.71091664       2.71611157       0.00000000
Si      -2.71451673       2.71440270      -0.00010393       0.00000000
Si       2.71502172      -0.00068418      -2.71437947       0.00000000
Si      -2.71655298       0.00286704       2.71292450       0.00000000
Si       2.71492398      -2.71494521       0.00006928       0.00000000
Si      -2.71526607      -2.71461627       0.00013857       0.00000000
