10
Lattice="16.28999089631971 0.0 0.0 0.0 16.28999089631971 0.0 0.0 0.0 34.642051614445585" Properties=species:S:1:pos:R:3:initial_magmoms:R:1 pbc="T T T"
Si       1.67036031      -0.36049185       1.54507101       0.00000000
Si       0.07648155       1.56701329      -1.73768092       0.00000000
Si      -2.17285794       0.43921098       0.85694091       0.00000000
Si      -0.93081060      -2.22727698      -0.45983885       0.00000000
Si      -0.82798812      -0.15420961      -3.20369872       0.00000000
Si      -2.49939099      -1.89600354       1.38145651       0.00000000
Si      -2.46746259      -1.33308630      -1.99160730       0.00000000
Si       3.55837131      -1.18730709       0.48921533       0.00000000
Si       2.01052809       1.53370024       2.83961056       0.00000000
Si      -2.06519733       2.02901398       2.61547636       0.00000000
