10
Lattice="16.28999089631971 0.0 0.0 0.0 16.28999089631971 0.0 0.0 0.0 34.642051614445585" Properties=species:S:1:pos:R:3:initial_magmoms:R:1 pbc="T T T"
Si       1.32467022      -1.35654649      -1.44128336       0.00000000
Si       1.16401824       1.71629811       1.19158332       0.00000000
Si      -1.85354136      -0.88433523       1.26453952       0.00000000
Si      -1.37653758       1.35470898      -1.45572911       0.00000000
Si      -0.71374635       3.29577651       1.31906614       0.00000000
Si      -2.75801103      -2.60555813      -0.20147828       0.00000000
Si      -2.61063540       2.76490170      -0.07586614       0.00000000
Si       2.76530895      -2.63006921      -0.04943424       0.00000000
Si       2.68154577       0.00568521      -2.80690844       0.00000000
Si      -0.03344337      -2.70852920      -2.81213940       0.00000000
