10
Lattice="16.28999089631971 0.0 0.0 0.0 16.28999089631971 0.0 0.0 0.0 34.642051614445585" Properties=species:S:1:pos:R:3:initial_magmoms:R:1 pbc="T T T"
Si      -0.67251636       2.18183373      -0.57072812       0.00000000
Si       1.34107425      -0.85111992      -1.73768092       0.00000000
Si       1.37109672       0.76326795       1.76376640       0.00000000
Si      -1.76987592      -1.39237309       0.87686010       0.00000000
Si      -3.38480136       0.34029810       0.54734472       0.00000000
Si      -2.39495580       2.44770282       0.90977007       0.00000000
Si       3.15791424      -1.68937400      -0.32338373       0.00000000
Si       0.31038966      -0.16405659       3.67919579       0.00000000
Si       3.50880084       0.07117101       1.19463182       0.00000000
Si       2.27328579       0.91645911      -3.09662008       0.00000000
