10
Lattice="16.28999089631971 0.0 0.0 0.0 16.28999089631971 0.0 0.0 0.0 34.642051614445585" Properties=species:S:1:pos:R:3:initial_magmoms:R:1 pbc="T T T"
Si      -1.35850455       1.35079938       1.35911237       0.00000000
Si       1.35715248       1.35469269      -1.35710313       0.00000000
Si      -1.35816246      -1.36011726      -1.35699920       0.00000000
Si       1.35635427      -1.36130643       1.36430868       0.00000000
Si      -2.70172908      -0.01228266       2.71548802       0.00000000
Si      -2.71394658       2.71272483       0.00083141       0.00000000
Si      -0.00109143       2.71288773      -2.71413698       0.00000000
Si       2.71490769       2.71306692      -0.00003464       0.00000000
Si       2.71494027      -0.00333945      -2.71406769       0.00000000
Si      -2.71604799      -0.00301365      -2.71434483       0.00000000
