10
Lattice="16.28999089631971 0.0 0.0 0.0 16.28999089631971 0.0 0.0 0.0 34.642051614445585" Properties=species:S:1:pos:R:3:initial_magmoms:R:1 pbc="T T T"
Si       1.72243944      -0.26586909      -1.48049819       0.00000000
Si      -1.62851130       1.64410083      -0.43122450       0.00000000
Si      -0.98984556      -2.10740472      -0.36242535       0.00000000
Si       0.79488684       0.20238696       2.25537203       0.00000000
Si       2.98616877       1.53192789      -0.69935413       0.00000000
Si      -3.50357175       0.22157658      -0.03069287       0.00000000
Si       2.39495580      -2.44770282      -0.90977007       0.00000000
Si      -1.40581071       2.86759386       1.59142210       0.00000000
Si       0.35331381      -1.94533551       3.11401040       0.00000000
Si      -0.96565491       1.32045111       3.31341016       0.00000000
