10
Lattice="16.28999089631971 0.0 0.0 0.0 16.28999089631971 0.0 0.0 0.0 34.642051614445585" Properties=species:S:1:pos:R:3:initial_magmoms:R:1 pbc="T T T"
Si      -1.93287366       0.73880037       1.18430848       0.00000000
Si      -0.01528002       1.43488836      -1.90929774       0.00000000
Si       0.76220910      -2.18826828      -0.65220627       0.00000000
Si       2.12703417       1.09465542       0.47199822       0.00000000
Si       1.47435903       2.87645562      -0.85863837       0.00000000
Si       1.02633516      -0.09252720      -3.37070815       0.00000000
Si       2.42211123      -1.61194437      -2.17264677       0.00000000
Si       3.67692993      -0.27538245      -0.69838415       0.00000000
Si      -3.03132465       2.26158957      -0.34735605       0.00000000
Si       2.03835141      -3.07289673       1.05689494       0.00000000
