10
Lattice="16.28999089631971 0.0 0.0 0.0 16.28999089631971 0.0 0.0 0.0 34.642051614445585" Properties=species:S:1:pos:R:3:initial_magmoms:R:1 pbc="T T T"
Si      -1.69689672      -1.59140268       0.45426148       0.00000000
Si       0.52126371       0.94824090       2.12096080       0.00000000
Si       1.93287366      -0.73880037      -1.18430848       0.00000000
Si      -1.09845099       1.52278920      -1.53166453       0.00000000
Si      -1.60647093       1.72618614       2.79748580       0.00000000
Si       1.91759364       0.69608799      -3.09360622       0.00000000
Si      -1.91959731      -2.81489571      -1.56838512       0.00000000
Si      -1.52502093       3.49169634      -0.34801425       0.00000000
Si      -3.11086872       0.68517369      -2.42314358       0.00000000
Si      -1.25674092      -3.13854543       2.17624954       0.00000000
