10
Lattice="16.28999089631971 0.0 0.0 0.0 16.28999089631971 0.0 0.0 0.0 34.642051614445585" Properties=species:S:1:pos:R:3:initial_magmoms:R:1 pbc="T T T"
Si       2.01007197      -1.10926755      -0.52250636       0.00000000
Si      -0.96971112       1.52493948      -1.56921653       0.00000000
Si      -1.60782300      -1.76422329       0.40337227       0.00000000
Si       0.27605034       1.88449236       1.57534818       0.00000000
Si       1.29961620      -2.99480247      -1.85445934       0.00000000
Si       2.70578529      -2.14034310       1.70061391       0.00000000
Si       3.83802174       0.38188647      -0.80968912       0.00000000
Si       0.29662461       0.98057655       3.81738301       0.00000000
Si      -3.09744576       2.30288472      -0.89269153       0.00000000
Si      -3.42288738      -0.92603763       1.77346618       0.00000000
