10
Lattice="16.28999089631971 0.0 0.0 0.0 16.28999089631971 0.0 0.0 0.0 34.642051614445585" Properties=species:S:1:pos:R:3:initial_magmoms:R:1 pbc="T T T"
Si      -1.35088083      -1.36251189       1.39105582       0.00000000
Si       1.36893015       1.35158130       1.39247615       0.00000000
Si       1.39657428      -1.44533025      -1.34217240       0.00000000
Si      -1.38655593       1.42322472      -1.55163914       0.00000000
Si       2.69749368       2.70293454       0.01527022       0.00000000
Si      -2.70910845      -2.70690930       0.00440301       0.00000000
Si      -2.71186146       2.70591561       0.00747922       0.00000000
Si      -2.70694188      -0.00560376       2.75262778       0.00000000
Si       0.00948078       2.70776865       2.75248921       0.00000000
Si       2.73701322      -2.73675258       0.04278642       0.00000000
