10
Lattice="16.28999089631971 0.0 0.0 0.0 16.28999089631971 0.0 0.0 0.0 34.642051614445585" Properties=species:S:1:pos:R:3:initial_magmoms:R:1 pbc="T T T"
Si      -1.27770615      -1.49192700       1.26675661       0.00000000
Si       1.56550158       1.40123306       1.08211437       0.00000000
Si       1.27757583      -1.43437443      -1.39306160       0.00000000
Si      -1.44063873       1.27352272      -1.39184913       0.00000000
Si       2.62968100      -0.07536489      -2.76332872       0.00000000
Si      -0.08376318       2.63575442      -2.75747421       0.00000000
Si      -2.76530895       2.63006921       0.04943424       0.00000000
Si      -1.13696055      -1.00858641       3.54087000       0.00000000
Si       2.56753206      -2.88656277       0.06384534       0.00000000
Si      -0.08206902      -2.79478491      -2.75986451       0.00000000
