10
Lattice="16.28999089631971 0.0 0.0 0.0 16.28999089631971 0.0 0.0 0.0 34.642051614445585" Properties=species:S:1:pos:R:3:initial_magmoms:R:1 pbc="T T T"
Si       1.91702905       0.35424234      -1.23062493       0.00000000
Si      -1.22002326      -1.73207660      -0.97167545       0.00000000
Si       1.00022622      -0.95602589       1.92537166       0.00000000
Si      -1.67348799       1.62792486       0.66834948       0.00000000
Si      -2.60569953      -0.13965417       2.02728864       0.00000000
Si      -3.34894707      -1.32847556       0.04281760       0.00000000
Si      -0.78885954      -0.97790825       3.44158583       0.00000000
Si       1.04475819       1.06378587      -3.35976125       0.00000000
Si      -0.25951599      -3.68575001      -0.10770220       0.00000000
Si       2.95599059       2.27022327      -0.35639763       0.00000000
