10
Lattice="16.28999089631971 0.0 0.0 0.0 16.28999089631971 0.0 0.0 0.0 34.642051614445585" Properties=species:S:1:pos:R:3:initial_magmoms:R:1 pbc="T T T"
Si       1.69371921       0.99265559       1.29384813       0.00000000
Si      -1.12076829      -1.79930773       1.17921406       0.00000000
Si       1.40834285      -0.03222162      -2.04069512       0.00000000
Si      -1.80872757       1.70109465       0.19945072       0.00000000
Si      -0.63760689       1.10895804      -3.09883717       0.00000000
Si       0.33418655       2.23499940       2.73112341       0.00000000
Si      -2.41017066      -0.48977092       2.68961528       0.00000000
Si       2.17695392      -2.44095454      -1.93223079       0.00000000
Si       2.58568631       2.79649941      -0.15249440       0.00000000
Si      -2.51906931       2.15042172      -1.99122624       0.00000000
