10
Lattice="16.28999089631971 0.0 0.0 0.0 16.28999089631971 0.0 0.0 0.0 34.642051614445585" Properties=species:S:1:pos:R:3:initial_magmoms:R:1 pbc="T T T"
Si      -0.48668004      -1.58857653      -1.58428583       0.00000000
Si       0.07040538       1.82120082      -1.54022112       0.00000000
Si      -1.88146242       1.04146368       1.10761094       0.00000000
Si       2.04594974      -1.14117966       1.05814206       0.00000000
Si       0.63760689      -1.10895804       3.09883717       0.00000000
Si      -1.17112068       0.59213661       3.29828790       0.00000000
Si       1.62927760       3.22016973      -0.52700983       0.00000000
Si       1.11466477      -1.35042960      -3.33984206       0.00000000
Si       1.27005052       1.00960044      -3.42055809       0.00000000
Si      -2.11561488       2.77946007      -1.48586771       0.00000000
