10
Lattice="16.28999089631971 0.0 0.0 0.0 16.28999089631971 0.0 0.0 0.0 34.642051614445585" Properties=species:S:1:pos:R:3:initial_magmoms:R:1 pbc="T T T"
Si      -1.35694071       1.35542574       1.36254194       0.00000000
Si       1.36230613      -1.36179513       1.36261122       0.00000000
Si       1.35366139       1.36014984      -1.37306966       0.00000000
Si      -1.37754756      -1.34949618      -1.36970245       0.00000000
Si       2.71519669      -0.06489936      -2.64643944       0.00000000
Si       0.03262887      -2.71808424      -2.67736095       0.00000000
Si      -2.71125873       2.71098180       0.00765590       0.00000000
Si       2.71761250       2.71231758       0.00356813       0.00000000
Si       0.00195480       2.71194291       2.72002613       0.00000000
Si      -2.71409319      -2.71891503       0.00540416       0.00000000
