10
Lattice="16.28999089631971 0.0 0.0 0.0 16.28999089631971 0.0 0.0 0.0 34.642051614445585" Properties=species:S:1:pos:R:3:initial_magmoms:R:1 pbc="T T T"
Si      -1.67208705      -1.17136503       1.22030159       0.00000000
Si      -1.50179139       1.20119202      -1.41228795       0.00000000
Si       1.21847571      -1.50874722      -1.40768055       0.00000000
Si       1.43997084       1.11946509       1.69008272       0.00000000
Si      -2.82408327       2.37669471       0.19257527       0.00000000
Si      -0.46389033      -1.66705344       3.31597368       0.00000000
Si      -0.15332148       2.54821212      -2.78317862       0.00000000
Si       2.55664959      -0.16658154      -2.78549964       0.00000000
Si       2.80910529       2.56297086       0.28794489       0.00000000
Si      -3.54985164       0.40811337       1.34778441       0.00000000
