10
Lattice="16.28999089631971 0.0 0.0 0.0 16.28999089631971 0.0 0.0 0.0 34.642051614445585" Properties=species:S:1:pos:R:3:initial_magmoms:R:1 pbc="T T T"
Si       0.54494937       1.48566429       1.85840854       0.00000000
Si       1.44484059      -1.94927769       0.47553171       0.00000000
Si      -0.24003315       1.45870434      -2.01270432       0.00000000
Si      -2.14389432      -1.32781419      -0.38681336       0.00000000
Si      -0.39038985      -3.23736057      -0.40132839       0.00000000
Si      -1.46157138       3.21302331      -0.70915783       0.00000000
Si       2.45990307       2.63886597       0.83608638       0.00000000
Si      -1.41011127       2.95238331       1.75493267       0.00000000
Si       3.67410266      -1.64450808      -0.28503496       0.00000000
Si      -1.68000399       0.33923925      -3.70278704       0.00000000
