10
Lattice="16.28999089631971 0.0 0.0 0.0 16.28999089631971 0.0 0.0 0.0 34.642051614445585" Properties=species:S:1:pos:R:3:initial_magmoms:R:1 pbc="T T T"
Si      -1.64859687       0.57785517       1.62575239       0.00000000
Si      -0.85033800      -1.02490164      -1.98114540       0.00000000
Si      -0.37776510       2.26755171      -0.81318797       0.00000000
Si       1.84005324      -1.06958511       1.30448182       0.00000000
Si      -1.47061233       2.90111868       1.19141010       0.00000000
Si      -1.32214527      -3.15051858      -1.03139838       0.00000000
Si      -3.66383277      -0.42357258       1.04272634       0.00000000
Si       0.96956451      -1.01226060      -3.58597398       0.00000000
Si       1.70334756       3.26793690      -1.44422794       0.00000000
Si       3.08017836       0.60141051       2.42120362       0.00000000
