10
Lattice="16.28999089631971 0.0 0.0 0.0 16.28999089631971 0.0 0.0 0.0 34.642051614445585" Properties=species:S:1:pos:R:3:initial_magmoms:R:1 pbc="T T T"
Si      -1.65990213      -0.57632391       1.52044050       0.00000000
Si       1.25481870       1.33656192       1.47426261       0.00000000
Si      -1.39577607       1.51941717      -1.19806138       0.00000000
Si       1.26229581      -1.96849989      -0.66987373       0.00000000
Si       2.73395300       2.14602831      -0.21090093       0.00000000
Si      -0.38375982      -1.46095236       3.22954171       0.00000000
Si       1.70776215      -0.24627222       3.17854858       0.00000000
Si      -2.42211123       1.61194437       2.17264677       0.00000000
Si      -0.29507706       2.70659979       2.64464498       0.00000000
Si      -3.28849488       0.33120828      -1.89966725       0.00000000
