10
Lattice="16.28999089631971 0.0 0.0 0.0 16.28999089631971 0.0 0.0 0.0 34.642051614445585" Properties=species:S:1:pos:R:3:initial_magmoms:R:1 pbc="T T T"
Si       1.34043894      -1.29142233       1.38495882       0.00000000
Si      -1.39657428       1.44533025       1.34217240       0.00000000
Si       1.66568508       1.03118958      -1.42466699       0.00000000
Si      -0.70143111      -1.87036893      -1.47579868       0.00000000
Si      -2.62632267      -2.58567912      -0.04191691       0.00000000
Si       2.65129524      -2.62093068      -0.11465486       0.00000000
Si      -0.02852379      -2.63430477       2.73970629       0.00000000
Si       2.68540650       0.08048889       2.73447534       0.00000000
Si       2.59032177       2.83872798      -0.15295860       0.00000000
Si       3.48553872      -0.79853580      -1.44569472       0.00000000
