10
Lattice="16.28999089631971 0.0 0.0 0.0 16.28999089631971 0.0 0.0 0.0 34.642051614445585" Properties=species:S:1:pos:R:3:initial_magmoms:R:1 pbc="T T T"
Si      -1.35612621      -1.35689184       1.35686064       0.00000000
Si      -1.35654975       1.35666378      -1.35672207       0.00000000
Si       1.35798327       1.35669636       1.35686064       0.00000000
Si       1.35749457      -1.35769005      -1.35696456       0.00000000
Si      -2.71339272      -0.00164529      -2.71396377       0.00000000
Si      -0.00092853       2.71371852      -2.71451804       0.00000000
Si      -0.00140094      -2.71420722      -2.71444876       0.00000000
Si       2.71461253      -0.00050499      -2.71424090       0.00000000
Si       2.71445477       2.71472850       0.00034642       0.00000000
Si      -2.71485882       2.71451673       0.00045035       0.00000000
