10
Lattice="16.28999089631971 0.0 0.0 0.0 16.28999089631971 0.0 0.0 0.0 34.642051614445585" Properties=species:S:1:pos:R:3:initial_magmoms:R:1 pbc="T T T"
Si      -1.20187620      -0.98240103       1.74263474       0.00000000
Si      -0.93274911       1.99993959      -0.77726415       0.00000000
Si       1.79356158       0.96888033       1.21510528       0.00000000
Si       0.07936488      -1.80379170      -1.59460917       0.00000000
Si      -2.00174778      -2.80417689      -0.96356920       0.00000000
Si       0.57681261       2.40481125      -2.74850191       0.00000000
Si      -0.36000900       3.64677714       0.81734502       0.00000000
Si       3.50574225       1.41996672      -0.43056630       0.00000000
Si       0.76810608       2.68030773       2.64980665       0.00000000
Si       0.19389987      -2.50181820       2.94069612       0.00000000
