10
Lattice="16.28999089631971 0.0 0.0 0.0 16.28999089631971 0.0 0.0 0.0 34.642051614445585" Properties=species:S:1:pos:R:3:initial_magmoms:R:1 pbc="T T T"
Si      -1.35650903      -1.35604476       1.35741491       0.00000000
Si       1.35555606      -1.35601218      -1.35966664       0.00000000
Si       1.35817875       1.35897696       1.35679135       0.00000000
Si      -1.35619789       1.35959598      -1.35935487       0.00000000
Si      -0.00040725      -2.71678104      -2.68485057       0.00000000
Si      -2.71150425      -2.71451673      -0.00031178       0.00000000
Si       0.00138465      -2.71360449       2.71413698       0.00000000
Si      -2.71442446       0.00172674       2.71444876       0.00000000
Si       2.71520091       0.00192222       2.71441411       0.00000000
Si       2.71533123      -2.71441899      -0.00041570       0.00000000
