10
Lattice="16.28999089631971 0.0 0.0 0.0 16.28999089631971 0.0 0.0 0.0 34.642051614445585" Properties=species:S:1:pos:R:3:initial_magmoms:R:1 pbc="T T T"
Si      -1.98492021      -0.65506977       1.00541683       0.00000000
Si       0.81028089      -1.65164310      -1.50651438       0.00000000
Si      -0.33378210       1.81060485      -1.51773841       0.00000000
Si       1.08161236       0.78749837       2.06508313       0.00000000
Si       0.01710450       3.57114986       0.00027714       0.00000000
Si       1.71897197      -0.49492278      -3.31178199       0.00000000
Si      -2.47770900       1.05505999       2.63432165       0.00000000
Si       2.39161376      -2.95766127      -0.42045082       0.00000000
Si       1.45530366       1.83248721      -3.03395258       0.00000000
Si      -3.36087135      -1.78890264      -0.52922692       0.00000000
