10
Lattice="16.28999089631971 0.0 0.0 0.0 16.28999089631971 0.0 0.0 0.0 34.642051614445585" Properties=species:S:1:pos:R:3:initial_magmoms:R:1 pbc="T T T"
Si       1.98492021       0.65506977      -1.00541683       0.00000000
Si      -1.37595114      -1.13383287      -1.53464374       0.00000000
Si      -0.49278879       1.71012976       1.62890482       0.00000000
Si       0.19622934      -1.84595022       1.55130658       0.00000000
Si      -3.05194779      -0.97103061       0.11075070       0.00000000
Si       1.46518776       1.20442121       2.81522254       0.00000000
Si       3.06653257       1.44256814       1.05966631       0.00000000
Si      -2.12400423      -2.12981976       1.93469038       0.00000000
Si      -0.20341323      -3.09058767      -2.19578767       0.00000000
Si       1.03360050      -0.97805160       3.57977305       0.00000000
