10
Lattice="16.28999089631971 0.0 0.0 0.0 16.28999089631971 0.0 0.0 0.0 34.642051614445585" Properties=species:S:1:pos:R:3:initial_magmoms:R:1 pbc="T T T"
Si       0.92463669       1.80753840       1.27170839       0.00000000
Si      -1.66568508      -1.03118958       1.42466699       0.00000000
Si       1.81985364      -1.82972538      -0.02102774       0.00000000
Si      -1.18021050       0.10085139      -2.32139982       0.00000000
Si      -0.32524614      -2.32261191       2.80962581       0.00000000
Si       2.37278355       0.42078699       2.77393755       0.00000000
Si      -2.36711619      -2.90155851      -0.05113170       0.00000000
Si      -2.38769046      -1.99764270      -2.29316653       0.00000000
Si       0.48953079       0.94475484      -3.82607817       0.00000000
Si       3.65142861      -0.98137476       1.30857448       0.00000000
