10
Lattice="16.28999089631971 0.0 0.0 0.0 16.28999089631971 0.0 0.0 0.0 34.642051614445585" Properties=species:S:1:pos:R:3:initial_magmoms:R:1 pbc="T T T"
Si      -1.35724859      -1.35639281       1.35845417       0.00000000
Si      -1.35753367       1.35767499      -1.35748419       0.00000000
Si       1.35782037      -1.35754940      -1.35758812       0.00000000
Si       1.35868374       1.35838849       1.35623708       0.00000000
Si       2.71324611       0.00605392       2.71548802       0.00000000
Si       0.00447975       2.70920742       2.71992220       0.00000000
Si      -2.71461258       0.00062881      -2.71455268       0.00000000
Si       0.00076563      -2.71440866      -2.71489910       0.00000000
Si      -0.00117288       2.71565826      -2.71444876       0.00000000
Si       2.71484253      -2.71546751      -0.00065820       0.00000000
