10
Lattice="16.28999089631971 0.0 0.0 0.0 16.28999089631971 0.0 0.0 0.0 34.642051614445585" Properties=species:S:1:pos:R:3:initial_magmoms:R:1 pbc="T T T"
Si       1.10620014       1.62640989       1.26138709       0.00000000
Si      -1.21786876      -1.46206008       1.36257658       0.00000000
Si       1.61369880      -1.64024010      -0.58219464       0.00000000
Si      -1.21325869       1.05422364      -1.81195352       0.00000000
Si      -0.76779235       2.77645131       2.03646878       0.00000000
Si      -1.56875536      -3.22260509      -0.15543897       0.00000000
Si       0.22033039      -3.20072273      -1.67165313       0.00000000
Si       3.24756951      -0.44149158      -1.84763486       0.00000000
Si       2.48096211       2.91553533      -0.11431883       0.00000000
Si       0.00202485      -1.88568153       3.34666655       0.00000000
