10
Lattice="16.28999089631971 0.0 0.0 0.0 16.28999089631971 0.0 0.0 0.0 34.642051614445585" Properties=species:S:1:pos:R:3:initial_magmoms:R:1 pbc="T T T"
Si       1.35345465      -1.35531171      -1.35817703       0.00000000
Si       1.36298430       1.35312885       1.35980521       0.00000000
Si      -1.36102787       1.35920502      -1.35731098       0.00000000
Si      -1.37555041      -1.34250777       1.37331562       0.00000000
Si       0.16226469      -2.54510073       2.66373276       0.00000000
Si      -0.04313592       2.59719615       2.70956422       0.00000000
Si       2.71033020       0.00169416      -2.71448340       0.00000000
Si       2.71047681      -2.71487511       0.00058892       0.00000000
Si       2.71161711       2.71383255       0.00277137       0.00000000
Si      -0.00348606      -2.71383255      -2.71476053       0.00000000
