10
Lattice="16.28999089631971 0.0 0.0 0.0 16.28999089631971 0.0 0.0 0.0 34.54679606040008" Properties=species:S:1:pos:R:3:initial_magmoms:R:1 pbc="T T T"
Si       1.42291521       1.36726531      -1.32169206       0.00000000
Si      -0.21677103       0.51718795       2.34137586       0.00000000
Si      -1.51651755      -1.53210123      -1.09043568       0.00000000
Si       1.17159309      -1.22483858       3.18670189       0.00000000
Si      -0.03007134       2.57459866      -2.73793876       0.00000000
Si       2.69755884      -0.15017262      -2.73051119       0.00000000
Si      -2.73564323      -0.16368844      -2.72436186       0.00000000
Si       1.07380422       2.41109593       2.87985708       0.00000000
Si      -0.03564252      -2.86126749      -2.72671104       0.00000000
Si       2.90471877       2.73735205       0.05088746       0.00000000
