10
Lattice="16.28999089631971 0.0 0.0 0.0 16.28999089631971 0.0 0.0 0.0 34.54679606040008" Properties=species:S:1:pos:R:3:initial_magmoms:R:1 pbc="T T T"
Si      -1.72273266       0.72490500      -1.45231357       0.00000000
Si      -1.29635820      -0.96555717       1.75390727       0.00000000
Si       0.67623048      -1.94734732      -1.20792940       0.00000000
Si       1.56020733       1.17926568       1.48226566       0.00000000
Si       1.58197077       0.10858914      -2.55853715       0.00000000
Si      -1.62494379      -2.91102952      -1.14546876       0.00000000
Si       2.42844804       2.11735791      -1.46112301       0.00000000
Si      -2.83217940       0.68007492       2.21887286       0.00000000
Si      -3.41321112       1.33423245       0.08401785       0.00000000
Si       2.09223873      -0.50437098       3.03932518       0.00000000
