10
Lattice="16.28999089631971 0.0 0.0 0.0 16.28999089631971 0.0 0.0 0.0 34.54679606040008" Properties=species:S:1:pos:R:3:initial_magmoms:R:1 pbc="T T T"
Si       1.82526192       0.77862942      -1.20074366       0.00000000
Si      -1.83749571      -1.19575116      -0.89949543       0.00000000
Si       1.21331178      -1.26232839       1.64750308       0.00000000
Si      -1.03987215       2.15917434       0.36854543       0.00000000
Si      -2.85005767      -0.44171964       1.22561737       0.00000000
Si       2.18036763       0.60734007       2.62065232       0.00000000
Si       3.00123702       1.67962932       0.63725056       0.00000000
Si      -0.61432848      -3.23754695      -1.49736262       0.00000000
Si      -1.60080201      -0.28588950       3.25983750       0.00000000
Si      -2.27033730       0.11618028      -2.84765944       0.00000000
