10
Lattice="16.28999089631971 0.0 0.0 0.0 16.28999089631971 0.0 0.0 0.0 34.54679606040008" Properties=species:S:1:pos:R:3:initial_magmoms:R:1 pbc="T T T"
Si       1.35739683       1.35700587      -1.35634252       0.00000000
Si      -1.35739683      -1.35741312      -1.35620433       0.00000000
Si      -1.35733167       1.35746199       1.35765530       0.00000000
Si       1.35786924      -1.35767376       1.35838078       0.00000000
Si      -2.71346440       2.71497285      -0.00010364       0.00000000
Si       0.00013032       2.71448415      -2.71406691       0.00000000
Si       2.71293660      -2.71581993       0.00100186       0.00000000
Si      -2.71498588      -0.00061902      -2.71392872       0.00000000
Si       2.71502172      -0.00027693      -2.71410146       0.00000000
Si      -0.00027693      -2.71538010      -2.71413600       0.00000000
