10
Lattice="16.28999089631971 0.0 0.0 0.0 16.28999089631971 0.0 0.0 0.0 34.54679606040008" Properties=species:S:1:pos:R:3:initial_magmoms:R:1 pbc="T T T"
Si      -1.22026761       1.39900149      -1.42778533       0.00000000
Si      -1.25877717      -1.24848189       1.59955210       0.00000000
Si       1.70025246       1.23299010       1.17891007       0.00000000
Si       1.49934789      -1.32432813      -1.41389751       0.00000000
Si      -2.57559561       2.72124450      -0.00252192       0.00000000
Si      -2.62627380      -2.68196931       0.12654498       0.00000000
Si       0.51601833      -2.37965949       2.86261821       0.00000000
Si      -2.56209120       0.02971296      -2.78554427       0.00000000
Si       0.15310971      -2.68542279      -2.78481879       0.00000000
Si       0.15763833       2.74258440      -2.78329873       0.00000000
