10
Lattice="16.28999089631971 0.0 0.0 0.0 16.28999089631971 0.0 0.0 0.0 34.54679606040008" Properties=species:S:1:pos:R:3:initial_magmoms:R:1 pbc="T T T"
Si      -0.77121747       2.17833138       0.37694030       0.00000000
Si       2.28016017      -0.08781939      -0.57603360       0.00000000
Si      -1.17597510      -0.90099990      -1.83799422       0.00000000
Si      -0.82086939      -1.07228925       1.98340176       0.00000000
Si      -3.00123702      -1.67962932      -0.63725056       0.00000000
Si      -1.78792524      -2.94195771       1.01025252       0.00000000
Si      -2.92884426       1.68694353       1.34407840       0.00000000
Si       3.42529830       0.03538188       1.40418986       0.00000000
Si       0.49085028       3.14926425       2.07861279       0.00000000
Si       2.76110613      -2.02685067      -1.72633891       0.00000000
