10
Lattice="16.28999089631971 0.0 0.0 0.0 16.28999089631971 0.0 0.0 0.0 34.54679606040008" Properties=species:S:1:pos:R:3:initial_magmoms:R:1 pbc="T T T"
Si       1.99832688       0.57790404      -1.09347580       0.00000000
Si      -0.70201266       2.24218818       0.36094513       0.00000000
Si      -1.32748350      -0.92919789      -1.74603060       0.00000000
Si       0.43284159      -1.31193144       1.94816401       0.00000000
Si      -2.47835150      -1.51135362       1.59993211       0.00000000
Si       2.27033730      -0.11618028       2.84765944       0.00000000
Si       1.34762283       3.19095036       1.13275553       0.00000000
Si       1.41729516       1.23206157      -3.22833080       0.00000000
Si      -1.29517880      -3.28475041      -1.28901077       0.00000000
Si      -3.52438127       0.03829779      -1.48502941       0.00000000
