10
Lattice="16.28999089631971 0.0 0.0 0.0 16.28999089631971 0.0 0.0 0.0 34.54679606040008" Properties=species:S:1:pos:R:3:initial_magmoms:R:1 pbc="T T T"
Si       1.35713619       1.35738054      -1.35689527       0.00000000
Si      -1.35739683       1.35731538       1.35744802       0.00000000
Si       1.35726651      -1.35747828       1.35772439       0.00000000
Si      -1.36041048      -1.35713619      -1.35803531       0.00000000
Si      -2.71099646      -0.00123804      -2.71513786       0.00000000
Si      -2.71359472       0.00048870       2.71396327       0.00000000
Si      -0.00013032      -2.71448415       2.71406691       0.00000000
Si       0.00407250       2.71077003      -2.71828162       0.00000000
Si       2.71505430       0.00149868       2.71413600       0.00000000
Si      -0.00070047       2.71409319       2.71548333       0.00000000
