10
Lattice="16.28999089631971 0.0 0.0 0.0 16.28999089631971 0.0 0.0 0.0 34.54679606040008" Properties=species:S:1:pos:R:3:initial_magmoms:R:1 pbc="T T T"
Si       1.22026761      -1.39900149       1.42778533       0.00000000
Si      -1.34182359      -1.36928853      -1.35775894       0.00000000
Si       1.37790594       1.34358291      -1.35551339       0.00000000
Si      -1.35532800       1.32224301       1.42526341       0.00000000
Si       0.42808491       2.23436898       3.01092769       0.00000000
Si      -2.69795632      -0.01177767      -2.71551788       0.00000000
Si      -2.68845599      -2.72679939       0.01748069       0.00000000
Si       0.01493793       2.70182682      -2.71399782       0.00000000
Si      -2.71061039       2.71520091       0.03136851       0.00000000
Si       2.74287762       2.69145009       0.00739302       0.00000000
