10
Lattice="16.28999089631971 0.0 0.0 0.0 16.28999089631971 0.0 0.0 0.0 34.54679606040008" Properties=species:S:1:pos:R:3:initial_magmoms:R:1 pbc="T T T"
Si       0.92137869       0.77110344       2.25297056       0.00000000
Si      -0.28750221      -1.59107688      -2.05985387       0.00000000
Si       1.30754943      -2.38394376      -0.37935858       0.00000000
Si       1.84016727       1.61645670      -1.60096852       0.00000000
Si      -2.77993737       0.80930349      -1.65562158       0.00000000
Si       1.02506454      -0.00392589      -3.23745116       0.00000000
Si      -3.36150666      -1.10537424       0.11728644       0.00000000
Si      -0.89339247       2.25671886       2.66521771       0.00000000
Si      -0.22892337       3.32744427      -1.67914796       0.00000000
Si      -1.73573208       3.41578494       0.43086788       0.00000000
