10
Lattice="16.28999089631971 0.0 0.0 0.0 16.28999089631971 0.0 0.0 0.0 34.54679606040008" Properties=species:S:1:pos:R:3:initial_magmoms:R:1 pbc="T T T"
Si      -0.82354095       2.06762454       0.67452657       0.00000000
Si       2.37140046      -0.25402626       0.38036044       0.00000000
Si      -1.80872757      -1.63414764      -0.03268129       0.00000000
Si      -0.41511807       1.56592512      -2.63239824       0.00000000
Si      -2.12182137       1.67472603       2.59014748       0.00000000
Si      -2.21894235       0.04681746      -3.03960155       0.00000000
Si       3.09902589      -1.29886686      -1.73155548       0.00000000
Si      -0.84712887      -3.73554135      -0.23992763       0.00000000
Si       2.89284336      -1.98954657       1.94360383       0.00000000
Si       3.41899407       1.78194681       1.15327634       0.00000000
