10
Lattice="16.28999089631971 0.0 0.0 0.0 16.28999089631971 0.0 0.0 0.0 34.54679606040008" Properties=species:S:1:pos:R:3:initial_magmoms:R:1 pbc="T T T"
Si       1.26350127      -1.94116527       0.03630870       0.00000000
Si      -1.39953906       0.94988619       1.64239015       0.00000000
Si       1.53367092       1.52005248      -0.96178334       0.00000000
Si      -2.16326313      -0.30674070      -0.97273468       0.00000000
Si       1.62929322       0.12479769      -2.91689126       0.00000000
Si      -2.17419372       1.47901797      -2.44518904       0.00000000
Si       1.75565475      -2.20784886      -2.23559352       0.00000000
Si       3.36684978      -1.13686281       0.79343671       0.00000000
Si      -3.56803128      -0.11311776       0.94907011       0.00000000
Si       3.77831889       1.08768330      -0.02995209       0.00000000
