10
Lattice="16.28999089631971 0.0 0.0 0.0 16.28999089631971 0.0 0.0 0.0 34.54679606040008" Properties=species:S:1:pos:R:3:initial_magmoms:R:1 pbc="T T T"
Si      -1.85868900      -1.05800292      -1.15869470       0.00000000
Si      -1.30065876       1.28959785       1.60789515       0.00000000
Si       1.39852908      -1.42516323       1.58362602       0.00000000
Si       1.67413959       1.02268620      -1.66580740       0.00000000
Si       2.74580982       2.48702688       0.05009288       0.00000000
Si      -2.86228332       2.43050058       0.26264562       0.00000000
Si      -3.71167650       0.60471738      -1.00533547       0.00000000
Si       0.04978224       2.64852594       2.98807843       0.00000000
Si      -2.66328468      -0.07074747       2.98541832       0.00000000
Si       2.85492024      -2.80264563       0.07803089       0.00000000
