10
Lattice="16.28999089631971 0.0 0.0 0.0 16.28999089631971 0.0 0.0 0.0 34.54679606040008" Properties=species:S:1:pos:R:3:initial_magmoms:R:1 pbc="T T T"
Si      -1.66881276      -0.82624509      -1.60670329       0.00000000
Si       0.97560810       1.80416637      -1.54977014       0.00000000
Si      -1.50680871       0.08834067       2.11001584       0.00000000
Si       2.06909064      -1.71098757       0.07817944       0.00000000
Si      -2.55101400      -2.51814078       0.02352638       0.00000000
Si      -0.23622129      -2.06105967      -2.98000829       0.00000000
Si       0.22892337      -3.32744427       1.67914796       0.00000000
Si       2.52113814       2.22707988       1.91109528       0.00000000
Si       1.25398791      -3.33137016      -1.55830320       0.00000000
Si       2.97958761       2.48254617      -0.39918845       0.00000000
