10
Lattice="16.28999089631971 0.0 0.0 0.0 16.28999089631971 0.0 0.0 0.0 34.54679606040008" Properties=species:S:1:pos:R:3:initial_magmoms:R:1 pbc="T T T"
Si      -1.15619904      -1.61272629      -1.21922621       0.00000000
Si       0.17457993       2.20558455      -0.73063060       0.00000000
Si      -1.43676171       0.48751083       1.86290247       0.00000000
Si       2.15881596      -0.98715771       0.50016879       0.00000000
Si      -2.06425251      -2.84796441       0.59831630       0.00000000
Si       3.18125781       0.93649581       1.44298593       0.00000000
Si       2.28924999       2.81289204       0.28642765       0.00000000
Si       1.48726071      -2.80476333       1.88204141       0.00000000
Si      -1.88177193      -1.65542238       2.71821253       0.00000000
Si      -0.05035239       1.77464889       3.24539693       0.00000000
