10
Lattice="16.28999089631971 0.0 0.0 0.0 16.28999089631971 0.0 0.0 0.0 34.54679606040008" Properties=species:S:1:pos:R:3:initial_magmoms:R:1 pbc="T T T"
Si       1.35549090      -1.35371889      -1.36221548       0.00000000
Si      -1.35819504      -1.35707463       1.35710255       0.00000000
Si       1.35762489       1.35798197       1.35717164       0.00000000
Si      -1.35897696       1.35766106      -1.36345916       0.00000000
Si      -0.00050499      -2.71455291       2.71455056       0.00000000
Si       2.71415835      -2.71526967      -0.00076003       0.00000000
Si       2.71461447       0.00070820       2.71499967       0.00000000
Si       0.00045612       2.71531853       2.71496513       0.00000000
Si      -2.71520091       0.00013985       2.71510331       0.00000000
Si       2.71560816       2.71613303       0.00069094       0.00000000
