10
Lattice="16.28999089631971 0.0 0.0 0.0 16.28999089631971 0.0 0.0 0.0 34.54679606040008" Properties=species:S:1:pos:R:3:initial_magmoms:R:1 pbc="T T T"
Si      -1.51392744      -1.32109524      -1.20074366       0.00000000
Si      -1.29163410       1.40505974       1.37489416       0.00000000
Si       1.08133020       1.30556042      -1.69410673       0.00000000
Si       1.27008243      -1.15231094       1.67776609       0.00000000
Si       0.17769132      -2.61852858      -2.28205898       0.00000000
Si      -1.82366550       3.08869640      -0.18216536       0.00000000
Si      -0.46141425      -2.02757625       3.03148305       0.00000000
Si       0.33518304       3.50448236      -1.10957462       0.00000000
Si      -0.18169866       1.54819997       3.40648873       0.00000000
Si       1.97109000       0.57418829       3.16721749       0.00000000
