10
Lattice="16.28999089631971 0.0 0.0 0.0 16.28999089631971 0.0 0.0 0.0 34.54679606040008" Properties=species:S:1:pos:R:3:initial_magmoms:R:1 pbc="T T T"
Si       1.33649676       1.34596125      -1.36463375       0.00000000
Si      -1.23295752       1.42278489       1.42360517       0.00000000
Si       1.49679036      -1.21117779       1.37099037       0.00000000
Si      -1.38300471      -1.36805049      -1.35920990       0.00000000
Si       0.02414178      -2.44369548       2.62756168       0.00000000
Si      -2.54552427      -0.16436610       2.60120246       0.00000000
Si       2.67193467       2.71254564       0.00635661       0.00000000
Si       2.69255781      -0.01047447      -2.72000896       0.00000000
Si      -2.72316672       2.69309538       0.00190007       0.00000000
Si       2.69505018      -2.72645730       0.00950037       0.00000000
