10
Lattice="16.28999089631971 0.0 0.0 0.0 16.28999089631971 0.0 0.0 0.0 34.54679606040008" Properties=species:S:1:pos:R:3:initial_magmoms:R:1 pbc="T T T"
Si      -1.35606105       1.35643572       1.35537521       0.00000000
Si      -1.35555606      -1.35733167      -1.35755166       0.00000000
Si       1.35913986       1.35759231      -1.35741347       0.00000000
Si       1.36071999      -1.35705474       1.36072996       0.00000000
Si      -2.69255781       0.01047447       2.72000896       0.00000000
Si      -2.71334385       0.00048870      -2.71489603       0.00000000
Si      -2.71329498      -2.71557558       0.00048366       0.00000000
Si      -2.71331127       2.71559187      -0.00010364       0.00000000
Si       0.00151497      -2.71451673      -2.71479239       0.00000000
Si       0.00115659       2.71498914      -2.71465420       0.00000000
