10
Lattice="16.28999089631971 0.0 0.0 0.0 16.28999089631971 0.0 0.0 0.0 34.54679606040008" Properties=species:S:1:pos:R:3:initial_magmoms:R:1 pbc="T T T"
Si      -1.34500014      -1.35112518       1.36877592       0.00000000
Si       1.36775727       1.36568844       1.36511395       0.00000000
Si       1.39771458      -1.32312267      -1.37722261       0.00000000
Si      -1.36200690       1.20060558      -1.56893326       0.00000000
Si       0.51634413       2.25077301      -2.71111458       0.00000000
Si       2.33227188       0.51968358      -2.75740731       0.00000000
Si      -2.70787041       2.70333904      -0.02341929       0.00000000
Si      -2.70928764      -2.71158453      -0.03540012       0.00000000
Si       2.72324817      -2.70501966       0.01780888       0.00000000
Si      -2.70440064       0.00353493       2.72805491       0.00000000
