10
Lattice="16.28999089631971 0.0 0.0 0.0 16.28999089631971 0.0 0.0 0.0 34.54679606040008" Properties=species:S:1:pos:R:3:initial_magmoms:R:1 pbc="T T T"
Si       0.92771550      -1.45990980       1.53073484       0.00000000
Si       1.72849932       1.16713682      -1.05533612       0.00000000
Si      -1.22324868      -1.73855025      -1.08286993       0.00000000
Si      -1.89508086       1.47118152       0.08412150       0.00000000
Si       0.30639861       2.37427469      -2.50115489       0.00000000
Si      -2.42549955      -0.34862229      -2.51210623       0.00000000
Si      -2.35353033       1.21571523       2.39440523       0.00000000
Si      -0.83442267      -3.00198636       2.14404446       0.00000000
Si      -1.10864853       3.56370533      -1.01391448       0.00000000
Si       2.40684750       3.02548373       0.29551346       0.00000000
