10
Lattice="16.28999089631971 0.0 0.0 0.0 16.28999089631971 0.0 0.0 0.0 34.54679606040008" Properties=species:S:1:pos:R:3:initial_magmoms:R:1 pbc="T T T"
Si      -1.20225087       1.38992796      -1.42923630       0.00000000
Si       1.22324868       1.73855025       1.08286993       0.00000000
Si       1.50746031      -1.31442381      -1.40937188       0.00000000
Si      -1.58232915      -0.98380197       1.64435932       0.00000000
Si       2.15096418       0.27864045       2.61360477       0.00000000
Si      -0.67183218       3.20973177       1.16699142       0.00000000
Si       0.38882601      -1.26343611       3.22691438       0.00000000
Si      -2.39743188      -2.60418456       0.00787667       0.00000000
Si      -2.67581169       2.53135197       0.01640974       0.00000000
Si      -2.54270610       0.03635928      -2.78246960       0.00000000
