10
Lattice="16.28999089631971 0.0 0.0 0.0 16.28999089631971 0.0 0.0 0.0 34.54679606040008" Properties=species:S:1:pos:R:3:initial_magmoms:R:1 pbc="T T T"
Si      -1.60539579      -1.28721951      -1.20992072       0.00000000
Si       1.34954505      -1.29321423       1.55027452       0.00000000
Si       1.40542140       1.30877118      -1.52108388       0.00000000
Si      -1.36130643       1.40901984       1.54546906       0.00000000
Si       2.70789226       2.57432499       0.04127999       0.00000000
Si       2.73795871      -2.61904104       0.06999530       0.00000000
Si      -2.70436806      -2.68053905       0.24144424       0.00000000
Si      -2.65763205       2.79863829       0.03560395       0.00000000
Si      -0.01427004      -2.65639727       2.93819974       0.00000000
Si       2.70103254       0.06276537       2.94092894       0.00000000
