10
Lattice="16.28999089631971 0.0 0.0 0.0 16.28999089631971 0.0 0.0 0.0 34.54679606040008" Properties=species:S:1:pos:R:3:initial_magmoms:R:1 pbc="T T T"
Si       1.35544203       1.35726399       1.35606614       0.00000000
Si       1.35720135      -1.35701721      -1.35737892       0.00000000
Si      -1.35796698      -1.35706608       1.35675708       0.00000000
Si      -1.35698958       1.35727376      -1.35782803       0.00000000
Si       0.00001629       2.71562030       2.71023221       0.00000000
Si       2.71415835      -0.00123309      -2.71372144       0.00000000
Si      -2.71415835       2.71461032      -0.00003455       0.00000000
Si       2.71486825       2.71439855       0.00031092       0.00000000
Si      -2.71461447      -0.00070820      -2.71499967       0.00000000
Si       0.00099369       2.71542482      -2.71430874       0.00000000
