10
Lattice="16.28999089631971 0.0 0.0 0.0 16.28999089631971 0.0 0.0 0.0 34.54679606040008" Properties=species:S:1:pos:R:3:initial_magmoms:R:1 pbc="T T T"
Si      -1.35542574       1.35835631       1.35416607       0.00000000
Si      -1.35544203      -1.35726399      -1.35606614       0.00000000
Si       1.35942622       1.35713456      -1.35575522       0.00000000
Si       1.35790182      -1.35674324       1.36052268       0.00000000
Si      -0.00390960       2.71001906       2.69879722       0.00000000
Si      -2.71078632       2.71519928       0.00117459       0.00000000
Si      -2.71243161       0.00000977      -2.71389417       0.00000000
Si       0.00175932      -2.71428120      -2.71344507       0.00000000
Si      -2.71340901      -2.71433007       0.00069094       0.00000000
Si       0.00259011       2.71482461      -2.71341052       0.00000000
