10
Lattice="16.28999089631971 0.0 0.0 0.0 16.28999089631971 0.0 0.0 0.0 34.54679606040008" Properties=species:S:1:pos:R:3:initial_magmoms:R:1 pbc="T T T"
Si       1.35151614       1.35166275       1.34463115       0.00000000
Si      -1.35536058       1.35684297      -1.35299148       0.00000000
Si       1.35542574      -1.35835631      -1.35416607       0.00000000
Si      -1.35754344      -1.35325917       1.36453011       0.00000000
Si      -0.12093696       2.52514548       2.72208177       0.00000000
Si       2.58157404      -0.01091430       2.75123928       0.00000000
Si       0.06455727      -2.56039704       2.81034888       0.00000000
Si       0.00029322       2.71379997      -2.71023221       0.00000000
Si      -2.71417464      -0.00100998      -2.71026676       0.00000000
Si      -2.71231758       2.71218726       0.00590751       0.00000000
