10
Lattice="16.28999089631971 0.0 0.0 0.0 16.28999089631971 0.0 0.0 0.0 34.54679606040008" Properties=species:S:1:pos:R:3:initial_magmoms:R:1 pbc="T T T"
Si       1.75303206      -1.36493910       0.80228069       0.00000000
Si      -1.87313823      -1.29099879       0.72164843       0.00000000
Si       0.70700229       0.18471231      -2.28268083       0.00000000
Si      -0.24650028       2.13957747       1.05543976       0.00000000
Si       2.02610133       2.90655954       1.30151672       0.00000000
Si       1.47271374      -3.48551333      -0.21543394       0.00000000
Si       1.61000586      -1.42991991       3.14925314       0.00000000
Si      -1.07180055       1.74454497       3.30440289       0.00000000
Si       0.58336119       2.41295625      -3.05117473       0.00000000
Si       2.90390005      -0.78278337      -2.54368202       0.00000000
