10
Lattice="16.28999089631971 0.0 0.0 0.0 16.28999089631971 0.0 0.0 0.0 34.54679606040008" Properties=species:S:1:pos:R:3:initial_magmoms:R:1 pbc="T T T"
Si      -1.36272366      -1.36451556       1.33827453       0.00000000
Si      -1.35610992       1.35565380      -1.35941718       0.00000000
Si       1.35668563      -1.35988920      -1.35903717       0.00000000
Si       1.36958568       1.35560493       1.37271771       0.00000000
Si      -0.09324396       2.61304632       2.74225711       0.00000000
Si      -2.71262709       2.71322982       0.00145097       0.00000000
Si       2.71621808       2.71311579      -0.00252192       0.00000000
Si       0.00128338       2.71277370      -2.71707248       0.00000000
Si      -2.71423980      -2.71617831      -0.00635661       0.00000000
Si      -2.71394658      -0.00237834      -2.71658883       0.00000000
