10
Lattice="16.28999089631971 0.0 0.0 0.0 16.28999089631971 0.0 0.0 0.0 34.54679606040008" Properties=species:S:1:pos:R:3:initial_magmoms:R:1 pbc="T T T"
Si      -1.35570267      -1.35829278      -1.37067945       0.00000000
Si       1.35822762       1.35892809      -1.36877937       0.00000000
Si      -1.19825982       1.51527951       1.36148999       0.00000000
Si       1.23567795      -1.54533456       1.34549482       0.00000000
Si      -2.67090840       0.28276182       2.61806131       0.00000000
Si       0.42130827       2.57178375       2.71520695       0.00000000
Si      -2.69505018       2.72645730      -0.00950037       0.00000000
Si       2.70813105      -2.71881729      -0.03195580       0.00000000
Si       2.71134018       2.71852407      -0.00272920       0.00000000
Si      -2.69219943      -2.73821868      -0.00860216       0.00000000
