10
Lattice="16.28999089631971 0.0 0.0 0.0 16.28999089631971 0.0 0.0 0.0 34.54679606040008" Properties=species:S:1:pos:R:3:initial_magmoms:R:1 pbc="T T T"
Si       1.50326956      -0.51795684      -1.73822302       0.00000000
Si       1.16185886      -1.03084749       1.78679584       0.00000000
Si       0.06612111       2.36669265       0.40008667       0.00000000
Si      -2.27260161      -0.76698207      -0.24607697       0.00000000
Si      -1.57789827       2.45941533       2.06237578       0.00000000
Si       3.43574738      -0.71715096       1.11703673       0.00000000
Si       3.55290506       0.43080534      -0.96641261       0.00000000
Si      -2.02610133      -2.90655954      -1.30151672       0.00000000
Si       0.70068081       0.51267888      -3.67509022       0.00000000
Si       0.14328684      -0.18075384       3.78560548       0.00000000
