10
Lattice="16.28999089631971 0.0 0.0 0.0 16.28999089631971 0.0 0.0 0.0 34.54679606040008" Properties=species:S:1:pos:R:3:initial_magmoms:R:1 pbc="T T T"
Si       0.76961907       2.04762042      -0.88080560       0.00000000
Si       0.96753219      -0.54185427       2.11208865       0.00000000
Si      -2.39739930       0.53994834       0.15808623       0.00000000
Si       1.31062891      -1.87250292      -1.10546354       0.00000000
Si       1.31613330      -2.82967074       1.72291878       0.00000000
Si      -0.59486193       3.78165834      -0.01782616       0.00000000
Si      -0.37170522       0.11855862       3.90672662       0.00000000
Si       2.93020352       2.63179611      -0.09078903       0.00000000
Si      -0.37058121      -3.74018400      -1.28666159       0.00000000
Si      -3.23563383       0.83825082      -2.18239142       0.00000000
