10
Lattice="16.28999089631971 0.0 0.0 0.0 16.28999089631971 0.0 0.0 0.0 34.54679606040008" Properties=species:S:1:pos:R:3:initial_magmoms:R:1 pbc="T T T"
Si       2.19107735      -0.21377367      -0.80241888       0.00000000
Si       0.13937724       1.31380479       1.96274277       0.00000000
Si      -0.46503063      -2.05576542       1.09679229       0.00000000
Si      -1.05580377       0.92536974      -2.07159978       0.00000000
Si      -1.48700007      -3.24425124      -0.62788837       0.00000000
Si       2.26956257       1.41118641      -2.47576298       0.00000000
Si       0.32104122       2.80554525      -2.39713442       0.00000000
Si       2.30180048      -2.47682934      -1.52392912       0.00000000
Si      -3.75601788      -0.26217126      -0.17570510       0.00000000
Si       1.16519016       3.38631633       1.34818947       0.00000000
