10
Lattice="16.28999089631971 0.0 0.0 0.0 16.28999089631971 0.0 0.0 0.0 34.54679606040008" Properties=species:S:1:pos:R:3:initial_magmoms:R:1 pbc="T T T"
Si       0.88854987      -0.73171422       1.99286590       0.00000000
Si      -0.80848899       2.21486985      -0.29464979       0.00000000
Si      -1.85890077      -1.48887342      -0.13556170       0.00000000
Si       1.78041948       0.38892375      -1.58511153       0.00000000
Si      -1.54671921      -1.69692930      -2.65747923       0.00000000
Si      -1.48372578       1.91734929      -2.56067905       0.00000000
Si       2.90625722       2.01163581      -0.27440535       0.00000000
Si      -0.56213532      -2.07785466       3.15155193       0.00000000
Si      -2.22013152       2.61908991       1.67572783       0.00000000
Si       0.78718167       1.60751349      -3.44269379       0.00000000
