10
Lattice="16.28999089631971 0.0 0.0 0.0 16.28999089631971 0.0 0.0 0.0 34.54679606040008" Properties=species:S:1:pos:R:3:initial_magmoms:R:1 pbc="T T T"
Si      -1.62452025      -1.15354377       1.25601857       0.00000000
Si      -1.27905822       1.27768986      -1.67990799       0.00000000
Si       1.35717270       1.23558021       1.70336528       0.00000000
Si       1.41578412      -1.43707122      -1.68194625       0.00000000
Si       1.08991407      -2.15215335       2.37996466       0.00000000
Si       2.64105602       2.60341893      -0.04363263       0.00000000
Si      -2.57396661      -2.68706808      -0.34401719       0.00000000
Si      -2.58132969       2.77873910      -0.26455951       0.00000000
Si       2.77106651      -2.83002912      -0.28805135       0.00000000
Si       0.06744060       2.62403658      -3.06855178       0.00000000
