10
Lattice="16.28999089631971 0.0 0.0 0.0 16.28999089631971 0.0 0.0 0.0 34.54679606040008" Properties=species:S:1:pos:R:3:initial_magmoms:R:1 pbc="T T T"
Si       0.28031832       2.12057423       1.01771463       0.00000000
Si       1.46349101       0.34717743      -1.87122825       0.00000000
Si       0.78353061      -1.38870621       1.81008039       0.00000000
Si      -2.03185170      -0.65735037      -1.16992790       0.00000000
Si      -1.68594984       0.24395904      -3.32848202       0.00000000
Si      -1.61995905      -2.96451936      -1.71480027       0.00000000
Si      -1.47271374       3.48551333       0.21543394       0.00000000
Si       0.23102478      -0.23017770       3.77821246       0.00000000
Si       1.43118631       2.70272996      -2.32824807       0.00000000
Si       0.46006218      -0.68781267      -3.75682798       0.00000000
