10
Lattice="16.28999089631971 0.0 0.0 0.0 16.28999089631971 0.0 0.0 0.0 34.54679606040008" Properties=species:S:1:pos:R:3:initial_magmoms:R:1 pbc="T T T"
Si      -1.78852375       0.29401821      -1.57737304       0.00000000
Si       0.71284551      -2.05892568      -1.17566267       0.00000000
Si       1.75558470       1.80248850       0.11227715       0.00000000
Si      -0.92005334       0.92877435       2.15420122       0.00000000
Si      -1.59004639       2.71528236       0.74652213       0.00000000
Si       2.65493931      -2.28608973       0.16530651       0.00000000
Si       0.38913063       3.55439655      -0.62391549       0.00000000
Si      -3.34356715       1.62781083      -0.36477982       0.00000000
Si      -0.98943409       1.48822182      -3.49876327       0.00000000
Si       1.74209658      -1.49323914      -3.27603995       0.00000000
