10
Lattice="16.28999089631971 0.0 0.0 0.0 16.28999089631971 0.0 0.0 0.0 34.54679606040008" Properties=species:S:1:pos:R:3:initial_magmoms:R:1 pbc="T T T"
Si      -1.36645407       1.75190805      -0.73619264       0.00000000
Si       2.11269897      -0.60589026      -0.93732419       0.00000000
Si      -1.75558470      -1.80248850      -0.11227715       0.00000000
Si       0.51658848       1.05226884       2.35647282       0.00000000
Si       2.32824825      -0.58295394       2.47700739       0.00000000
Si      -2.67563804      -0.87371415       2.04192407       0.00000000
Si       2.51182026      -2.31536286       0.69774203       0.00000000
Si      -3.34563110       0.91279386       0.63424498       0.00000000
Si      -1.37316718       0.39183966       3.60428794       0.00000000
Si       1.70170227      -1.51031106      -3.18214171       0.00000000
