10
Lattice="16.28999089631971 0.0 0.0 0.0 16.28999089631971 0.0 0.0 0.0 34.54679606040008" Properties=species:S:1:pos:R:3:initial_magmoms:R:1 pbc="T T T"
Si       1.35728049      -1.35773892      -1.35703345       0.00000000
Si      -1.35739330      -1.35711990       1.35765530       0.00000000
Si      -1.35807748       1.35744570      -1.35679163       0.00000000
Si       1.35880197       1.35785295       1.35679163       0.00000000
Si       2.71198621       0.00022806      -2.71520695       0.00000000
Si      -0.00035675       2.71402803      -2.71465420       0.00000000
Si      -0.00106230      -2.71554300      -2.71372144       0.00000000
Si       2.71486954      -2.71453302       0.00069094       0.00000000
Si       2.71493470       0.00034209       2.71455056       0.00000000
Si      -2.71475755       0.00184077      -2.71475785       0.00000000
