10
Lattice="16.28999089631971 0.0 0.0 0.0 16.28999089631971 0.0 0.0 0.0 34.54679606040008" Properties=species:S:1:pos:R:3:initial_magmoms:R:1 pbc="T T T"
Si      -0.97360280       1.22318352      -1.68101349       0.00000000
Si      -1.55558749      -0.78442866       1.62370032       0.00000000
Si       1.80382428       1.51910766       0.40720331       0.00000000
Si       1.91879910      -1.44806697      -1.34929497       0.00000000
Si      -1.07917177       3.19953519      -0.28335298       0.00000000
Si       0.41021478      -1.68096510       3.00692026       0.00000000
Si      -2.19397697      -0.26994159      -2.98961231       0.00000000
Si       2.21894235      -0.04681746       3.03960155       0.00000000
Si       0.60198066       2.52165942      -2.95136898       0.00000000
Si       0.55130247      -2.88155439      -2.82230208       0.00000000
