10
Lattice="16.28999089631971 0.0 0.0 0.0 16.28999089631971 0.0 0.0 0.0 34.54679606040008" Properties=species:S:1:pos:R:3:initial_magmoms:R:1 pbc="T T T"
Si      -1.01742556      -0.06384051       2.13171124       0.00000000
Si       0.10556897      -1.97635167      -1.39766051       0.00000000
Si       2.04119401       1.95771591       0.69908936       0.00000000
Si      -2.71443432       0.99860958      -1.12394609       0.00000000
Si       1.14315890       0.52033518       2.92172782       0.00000000
Si       1.68115244      -0.67787577      -2.66801600       0.00000000
Si       1.07917177      -3.19953519       0.28335298       0.00000000
Si      -1.08991407       2.15215335      -2.37996466       0.00000000
Si       2.88299605      -1.68042753       0.69055629       0.00000000
Si       0.26725863       3.38773356      -0.67659938       0.00000000
