10
Lattice="16.28999089631971 0.0 0.0 0.0 16.28999089631971 0.0 0.0 0.0 34.54679606040008" Properties=species:S:1:pos:R:3:initial_magmoms:R:1 pbc="T T T"
Si       1.24962708       1.14139143      -1.62981511       0.00000000
Si       0.52697010       1.04712120       2.05394636       0.00000000
Si       0.69619062      -2.18554785      -0.65797865       0.00000000
Si      -2.39549567      -0.25314660       0.24586968       0.00000000
Si      -1.42155125       2.44148004       2.13257491       0.00000000
Si       0.66305676      -0.09358605      -3.64935284       0.00000000
Si       1.99447104      -1.79264934      -2.57359956       0.00000000
Si      -2.63885198      -2.60682354       0.34816281       0.00000000
Si      -2.79839624       0.56130453       2.45810955       0.00000000
Si       0.44848488      -0.57783888       3.72729046       0.00000000
