10
Lattice="16.28999089631971 0.0 0.0 0.0 16.28999089631971 0.0 0.0 0.0 34.54679606040008" Properties=species:S:1:pos:R:3:initial_magmoms:R:1 pbc="T T T"
Si      -1.60230395       1.75158225      -0.13842909       0.00000000
Si       1.40476815      -0.19362294      -1.92180479       0.00000000
Si      -1.12216923      -2.16187848       0.01143500       0.00000000
Si       2.16849222       1.06300395       0.69332004       0.00000000
Si      -1.56944865      -2.11467006      -2.31829859       0.00000000
Si      -0.47646621       3.37429431       1.17227709       0.00000000
Si       3.56803128       0.11311776      -0.94907011       0.00000000
Si       1.60505370       3.35616354       0.10243131       0.00000000
Si       0.47803005      -1.75340673      -3.45361059       0.00000000
Si      -3.38272343       1.36265850       1.44668244       0.00000000
