10
Lattice="16.28999089631971 0.0 0.0 0.0 16.28999089631971 0.0 0.0 0.0 34.54679606040008" Properties=species:S:1:pos:R:3:initial_magmoms:R:1 pbc="T T T"
Si       1.51651755       1.53210123       1.09043568       0.00000000
Si      -1.21912568       1.36841280      -1.63392618       0.00000000
Si      -1.28388332      -1.36783872       1.74699791       0.00000000
Si       1.48087503      -1.32916626      -1.63627536       0.00000000
Si      -2.64105602      -2.60341893       0.04363263       0.00000000
Si      -2.70536894       2.72480291      -0.28003649       0.00000000
Si      -2.57361542       0.02061765      -3.02491915       0.00000000
Si       2.79562464      -2.82942639      -0.28898411       0.00000000
Si       0.14165784      -2.69276958      -3.02364092       0.00000000
Si       0.14512761       2.73519593      -3.02191358       0.00000000
