10
Lattice="16.28999089631971 0.0 0.0 0.0 16.28999089631971 0.0 0.0 0.0 34.35334932831803" Properties=species:S:1:pos:R:3:initial_magmoms:R:1 pbc="T T T"
Si       1.84403973       1.28157014       0.51069718       0.00000000
Si       0.81922117      -2.06090070      -0.84622653       0.00000000
Si      -1.50784673       1.39775042      -1.25108098       0.00000000
Si       0.96097023       0.25684932       2.58972869       0.00000000
Si      -0.66573518      -3.06785076       0.72100850       0.00000000
Si      -0.37262921      -1.81560588       2.77080529       0.00000000
Si       0.63136000      -1.31825589      -3.21726167       0.00000000
Si      -1.04543879       0.52028468      -3.41630509       0.00000000
Si      -3.55142723       1.02374505      -0.15929657       0.00000000
Si      -2.86047059      -2.83377975      -0.24511128       0.00000000
