10
Lattice="16.28999089631971 0.0 0.0 0.0 16.28999089631971 0.0 0.0 0.0 34.35334932831803" Properties=species:S:1:pos:R:3:initial_magmoms:R:1 pbc="T T T"
Si      -1.16221005       1.44391302      -1.38231428       0.00000000
Si      -1.37168316      -1.33733569       1.35189781       0.00000000
Si       1.34628705       1.38015396       1.35516138       0.00000000
Si       1.40064678      -1.31513242      -1.42533157       0.00000000
Si      -2.72121192      -2.68111313      -0.03768221       0.00000000
Si      -0.01236411      -2.69363168       2.71191331       0.00000000
Si       2.71904535      -2.69244021      -0.01421886       0.00000000
Si       2.70306486       0.02202408       2.71235991       0.00000000
Si       2.69309538       2.73637791      -0.00223984       0.00000000
Si      -2.72694600       0.02275713       2.71270344       0.00000000
