10
Lattice="16.28999089631971 0.0 0.0 0.0 16.28999089631971 0.0 0.0 0.0 34.35334932831803" Properties=species:S:1:pos:R:3:initial_magmoms:R:1 pbc="T T T"
Si       2.23111587      -0.28203366       0.78016500       0.00000000
Si      -0.96166288       1.28988944       1.78194358       0.00000000
Si      -1.33359944      -2.07245520       0.18107661       0.00000000
Si       0.88306950       1.02472082      -2.07903151       0.00000000
Si      -0.96097023      -0.25684932      -2.58972869       0.00000000
Si       3.00754614      -2.08359756      -0.50526934       0.00000000
Si       0.08748870       0.47520211       3.74915487       0.00000000
Si       2.04651759      -0.71210988       3.10956386       0.00000000
Si       1.12901592       3.33216674      -1.53562993       0.00000000
Si      -0.62491698      -3.23241723       2.18425588       0.00000000
