10
Lattice="16.28999089631971 0.0 0.0 0.0 16.28999089631971 0.0 0.0 0.0 34.35334932831803" Properties=species:S:1:pos:R:3:initial_magmoms:R:1 pbc="T T T"
Si      -2.06601997       1.13316498      -0.21065486       0.00000000
Si      -0.24594642      -2.30744592      -0.54340158       0.00000000
Si       0.57375009       0.71775369       2.26502065       0.00000000
Si       1.14267834       0.87879663      -1.98026558       0.00000000
Si      -1.47591798       0.25347240       3.32427241       0.00000000
Si       0.76437567       3.25742985      -1.48750086       0.00000000
Si       1.80405234      -2.68743298      -1.76160638       0.00000000
Si      -3.03305858       0.18422361      -2.16646083       0.00000000
Si      -1.42599239       3.40894314      -0.52340792       0.00000000
Si      -3.13143389       1.05142176       1.89826408       0.00000000
