10
Lattice="16.28999089631971 0.0 0.0 0.0 16.28999089631971 0.0 0.0 0.0 34.35334932831803" Properties=species:S:1:pos:R:3:initial_magmoms:R:1 pbc="T T T"
Si      -1.83845682      -1.42003514       0.17410287       0.00000000
Si      -0.72327600       1.77020172       1.43411572       0.00000000
Si       1.66710231      -1.35456726       1.10006357       0.00000000
Si       0.58236750       0.27901512      -2.33853686       0.00000000
Si      -1.06202655      -3.22159904      -1.11133147       0.00000000
Si       1.20177846       3.01821120       1.69846489       0.00000000
Si      -2.02305510      -1.85011136       2.50350173       0.00000000
Si      -2.36680668       2.91191895       0.12332859       0.00000000
Si       2.02888692       3.14623431      -0.51124683       0.00000000
Si       1.78675236      -0.56169712       3.29077788       0.00000000
