10
Lattice="16.28999089631971 0.0 0.0 0.0 16.28999089631971 0.0 0.0 0.0 34.35334932831803" Properties=species:S:1:pos:R:3:initial_magmoms:R:1 pbc="T T T"
Si       0.11965005       0.79287014       2.19071431       0.00000000
Si       2.10994596       0.85270168      -0.57658694       0.00000000
Si      -1.66710231       1.35456726      -1.10006357       0.00000000
Si      -0.34308369      -2.38852355       0.11869089       0.00000000
Si      -2.04553530       0.27360521       2.92769713       0.00000000
Si      -3.50555913      -0.06546788      -0.92596070       0.00000000
Si       3.72905793      -0.22021148       0.77006511       0.00000000
Si       2.55731823       0.48364033      -2.83703859       0.00000000
Si       1.70036649      -3.46770347      -0.46091915       0.00000000
Si       0.55405548       3.11457144       2.31270312       0.00000000
