10
Lattice="16.28999089631971 0.0 0.0 0.0 16.28999089631971 0.0 0.0 0.0 34.35334932831803" Properties=species:S:1:pos:R:3:initial_magmoms:R:1 pbc="T T T"
Si       1.92505446       1.24800948       0.26434917       0.00000000
Si       0.72327600      -1.77020172      -1.43411572       0.00000000
Si      -1.64353068       1.14171723      -1.31078713       0.00000000
Si      -0.39750858      -0.62237574       2.32070746       0.00000000
Si       2.94443379      -0.01019754       1.97865097       0.00000000
Si      -1.11518082      -3.19023686      -1.26001285       0.00000000
Si       2.75216292       1.37603259      -1.94536255       0.00000000
Si      -3.69319875       0.67743594      -0.25153536       0.00000000
Si       0.34484301      -2.85116377       2.59364497       0.00000000
Si       1.31261562       0.38151180       3.63644147       0.00000000
