10
Lattice="16.28999089631971 0.0 0.0 0.0 16.28999089631971 0.0 0.0 0.0 34.35334932831803" Properties=species:S:1:pos:R:3:initial_magmoms:R:1 pbc="T T T"
Si      -1.39812183      -1.77559927       0.67459710       0.00000000
Si       1.85595228      -0.17085278       1.47513364       0.00000000
Si      -1.45600020       1.89358381       0.22285030       0.00000000
Si       0.28510758      -1.05255554      -2.13914990       0.00000000
Si       0.39835566      -0.72187832       3.21921981       0.00000000
Si       2.44483578      -0.51223742      -2.81154839       0.00000000
Si      -3.38486652      -1.54454191      -0.69788868       0.00000000
Si      -1.24809093      -0.15118749      -3.66076366       0.00000000
Si       2.36312514      -2.50786735       1.76937025       0.00000000
Si      -0.22015935       3.89564110       0.72774176       0.00000000
