10
Lattice="16.28999089631971 0.0 0.0 0.0 16.28999089631971 0.0 0.0 0.0 34.35334932831803" Properties=species:S:1:pos:R:3:initial_magmoms:R:1 pbc="T T T"
Si       0.56894454      -2.28094276      -0.15565511       0.00000000
Si      -2.04999876       0.37998706       1.21820480       0.00000000
Si       1.71887193       0.77228284       1.56476158       0.00000000
Si       0.35502426      -0.16728853      -2.45949507       0.00000000
Si       3.38177142      -0.79965167       1.04169719       0.00000000
Si      -0.66137400       3.56622961      -0.21865919       0.00000000
Si      -1.80405234       2.68743298       1.76160638       0.00000000
Si       2.08352358      -2.00033122      -2.39930796       0.00000000
Si       2.14637040      -2.76229597       1.59090450       0.00000000
Si       0.07447788      -2.72833132       2.79196697       0.00000000
