10
Lattice="16.28999089631971 0.0 0.0 0.0 16.28999089631971 0.0 0.0 0.0 34.35334932831803" Properties=species:S:1:pos:R:3:initial_magmoms:R:1 pbc="T T T"
Si       1.36159965       1.35021294      -1.40065554       0.00000000
Si      -1.35435060      -1.36534635      -1.39739197       0.00000000
Si       1.42737867      -1.34242632       1.50151703       0.00000000
Si      -1.53371979       1.39105197       1.53556122       0.00000000
Si       2.70068652       2.70107748      -0.01064954       0.00000000
Si      -2.70716994       2.70342324      -0.03991861       0.00000000
Si       2.71023246      -2.72041371      -0.02494055       0.00000000
Si      -2.72170062      -2.71738377      -0.00814175       0.00000000
Si       0.00293220       2.70757719      -2.76314449       0.00000000
Si      -2.71225242      -0.00584811      -2.76345367       0.00000000
