10
Lattice="16.28999089631971 0.0 0.0 0.0 16.28999089631971 0.0 0.0 0.0 34.35334932831803" Properties=species:S:1:pos:R:3:initial_magmoms:R:1 pbc="T T T"
Si      -1.28101302      -1.43839071      -1.37973434       0.00000000
Si       1.52344080       1.31624829      -1.32026866       0.00000000
Si      -1.05261093       1.22106582       1.85044420       0.00000000
Si      -0.07938117       0.05983317       3.67587914       0.00000000
Si       2.23493913       0.37040202       2.92494886       0.00000000
Si       3.10063860       2.12812560       0.45391106       0.00000000
Si      -2.41197885      -3.00175504      -0.01305428       0.00000000
Si      -2.62563849      -0.05870916      -2.82992744       0.00000000
Si       0.09606213       2.65867461      -2.82178569       0.00000000
Si       0.09418878      -2.77054293      -2.85280678       0.00000000
