10
Lattice="16.28999089631971 0.0 0.0 0.0 16.28999089631971 0.0 0.0 0.0 34.35334932831803" Properties=species:S:1:pos:R:3:initial_magmoms:R:1 pbc="T T T"
Si       0.97322976      -1.16123265       1.82543494       0.00000000
Si       1.05261093      -1.22106582      -1.85044420       0.00000000
Si      -2.37576618      -0.48930273       0.37733740       0.00000000
Si       1.06012062       2.66608656       0.16386557       0.00000000
Si      -2.75406885       1.88933049       0.87010212       0.00000000
Si       3.28755006      -0.85066380       1.07450466       0.00000000
Si      -2.30948217       2.15277237      -1.73948282       0.00000000
Si       0.00447975      -3.28324950       2.16075817       0.00000000
Si       2.57605173       0.09518247      -3.17071285       0.00000000
Si       0.62323911       3.19748265       2.51885769       0.00000000
