10
Lattice="16.28999089631971 0.0 0.0 0.0 16.28999089631971 0.0 0.0 0.0 34.35334932831803" Properties=species:S:1:pos:R:3:initial_magmoms:R:1 pbc="T T T"
Si       1.83845682       1.42003514      -0.17410287       0.00000000
Si       0.77643027      -1.80156390      -1.28543434       0.00000000
Si      -0.18459828      -0.43007622       2.32939886       0.00000000
Si      -2.23111587       0.28203366      -0.78016500       0.00000000
Si      -1.34804637       1.30675448      -2.85919651       0.00000000
Si       1.08791136      -3.25290516       0.44422341       0.00000000
Si      -0.53458893      -2.71588902       2.08772291       0.00000000
Si       1.11518082       3.19023686       1.26001285       0.00000000
Si       3.50555913       0.06546788       0.92596070       0.00000000
Si      -3.19277875       1.57192310       1.00177858       0.00000000
