10
Lattice="16.28999089631971 0.0 0.0 0.0 16.28999089631971 0.0 0.0 0.0 34.35334932831803" Properties=species:S:1:pos:R:3:initial_magmoms:R:1 pbc="T T T"
Si      -1.35829278      -1.34959392       1.37252700       0.00000000
Si       1.35404109       1.36708938       1.37111852       0.00000000
Si      -1.57951098       1.11500163      -1.37253731       0.00000000
Si       1.44259353      -1.25183763      -1.46086669       0.00000000
Si       2.71692765      -2.69167815       0.01116484       0.00000000
Si      -2.72619666      -2.70200601       0.00573358       0.00000000
Si      -2.72477943       2.70774009       0.00846467       0.00000000
Si       2.72292237       2.71749780       0.01460362       0.00000000
Si      -0.00431685      -2.70888039       2.73168368       0.00000000
Si       2.71358820       0.00649971       2.73168368       0.00000000
