10
Lattice="16.28999089631971 0.0 0.0 0.0 16.28999089631971 0.0 0.0 0.0 34.35334932831803" Properties=species:S:1:pos:R:3:initial_magmoms:R:1 pbc="T T T"
Si       1.57951098      -1.11500163       1.37253731       0.00000000
Si      -1.14526845       1.59273846       1.38100198       0.00000000
Si       1.13751441       1.81905543      -1.20916540       0.00000000
Si      -1.58309478      -1.62867420      -1.57437163       0.00000000
Si       1.17507915       0.37716237      -3.46844461       0.00000000
Si       0.22121820      -2.46459555       2.74506431       0.00000000
Si      -2.49385239       0.25436835       2.74709116       0.00000000
Si       3.02210451      -2.36683926      -0.08832938       0.00000000
Si      -2.35113570       3.04471503      -0.06365336       0.00000000
Si      -0.38978712       3.75041412      -1.20611173       0.00000000
