10
Lattice="16.28999089631971 0.0 0.0 0.0 16.28999089631971 0.0 0.0 0.0 34.35334932831803" Properties=species:S:1:pos:R:3:initial_magmoms:R:1 pbc="T T T"
Si      -1.35571896      -1.35601218       1.35774818       0.00000000
Si      -1.35397593       1.35928647      -1.35915667       0.00000000
Si       1.35957969       1.35980775       1.35733594       0.00000000
Si       1.36032903      -1.35767376      -1.35970633       0.00000000
Si      -0.00747711      -2.71256193      -2.71442798       0.00000000
Si      -2.71357191      -2.71389771       0.00123672       0.00000000
Si       0.00223173      -2.71298547       2.71470624       0.00000000
Si      -2.71309950       0.00218286       2.71504977       0.00000000
Si       2.71728603      -2.71202436      -0.00010306       0.00000000
Si      -2.71264338       2.71836117      -0.00065271       0.00000000
