10
Lattice="16.28999089631971 0.0 0.0 0.0 16.28999089631971 0.0 0.0 0.0 34.35334932831803" Properties=species:S:1:pos:R:3:initial_magmoms:R:1 pbc="T T T"
Si      -1.28093157       1.99427067       0.46476672       0.00000000
Si       2.26320228       0.60295806       0.73138322       0.00000000
Si       0.19577322      -0.32768964      -2.47567550       0.00000000
Si      -1.00913292      -1.42796511       1.89929469       0.00000000
Si       0.27569196       3.40746075      -0.60750497       0.00000000
Si       0.48713616      -0.71767224       3.51864377       0.00000000
Si       1.85311782       2.92610754       1.13905464       0.00000000
Si       2.63855646      -1.19581632       2.34032323       0.00000000
Si      -0.21877470       2.96007219       2.34011711       0.00000000
Si       2.00249712      -2.10207789      -2.65352289       0.00000000
