10
Lattice="16.28999089631971 0.0 0.0 0.0 16.28999089631971 0.0 0.0 0.0 34.35334932831803" Properties=species:S:1:pos:R:3:initial_magmoms:R:1 pbc="T T T"
Si      -1.34858394      -1.33837011       1.36608918       0.00000000
Si       1.36663326       1.37244879       1.36189807       0.00000000
Si      -1.20586725       1.45197657      -1.44465534       0.00000000
Si       1.14526845      -1.59273846      -1.38100198       0.00000000
Si       0.75548133       2.15767566      -2.58711371       0.00000000
Si       2.28278286       0.22631697      -2.59016738       0.00000000
Si      -2.55853998      -0.01228266      -2.75777304       0.00000000
Si       0.00781920      -2.69825931       2.72256629       0.00000000
Si      -2.71964808      -2.70962973       0.00447281       0.00000000
Si      -2.70873378       0.01443294       2.72373431       0.00000000
