10
Lattice="16.28999089631971 0.0 0.0 0.0 16.28999089631971 0.0 0.0 0.0 34.35334932831803" Properties=species:S:1:pos:R:3:initial_magmoms:R:1 pbc="T T T"
Si       1.35904212      -1.35707103       1.35448461       0.00000000
Si      -1.35780408      -1.35591444      -1.35757642       0.00000000
Si       1.35684297       1.35929883      -1.35747336       0.00000000
Si      -1.35762489       1.35953689       1.35802301       0.00000000
Si       2.71085148      -0.02306664       2.71340081       0.00000000
Si       2.71438641      -2.71254564      -0.00116801       0.00000000
Si      -0.00021177      -2.71344159      -2.71515283       0.00000000
Si       2.71334385       2.71526511      -0.00082448       0.00000000
Si      -2.71489140       0.00120546      -2.71504977       0.00000000
Si       2.71547784       0.00146610      -2.71480930       0.00000000
