10
Lattice="16.28999089631971 0.0 0.0 0.0 16.28999089631971 0.0 0.0 0.0 34.35334932831803" Properties=species:S:1:pos:R:3:initial_magmoms:R:1 pbc="T T T"
Si      -1.86831639       1.19292226       0.85295979       0.00000000
Si      -0.02840976       0.87408949      -2.22589216       0.00000000
Si      -0.71392554      -2.28851694       0.03466255       0.00000000
Si       1.98674469      -0.23105736       1.37248578       0.00000000
Si       0.44676954      -1.16644545       3.13965741       0.00000000
Si      -2.77275348      -2.21335488       1.10102546       0.00000000
Si      -1.86030171       0.75185422       3.14319581       0.00000000
Si      -3.74335403      -0.17624151       0.46562556       0.00000000
Si       3.38486652       1.54454191       0.69788868       0.00000000
Si      -0.80879850      -3.04730514      -2.15557081       0.00000000
