10
Lattice="16.28999089631971 0.0 0.0 0.0 16.28999089631971 0.0 0.0 0.0 34.35334932831803" Properties=species:S:1:pos:R:3:initial_magmoms:R:1 pbc="T T T"
Si       1.22559444       1.17079488       1.69721584       0.00000000
Si       1.17833715      -1.12687704      -1.77641269       0.00000000
Si      -0.26946918       2.15570457      -1.05904564       0.00000000
Si      -1.55880476      -1.39027168       1.57925668       0.00000000
Si       2.56754835       2.55681324       0.34861798       0.00000000
Si      -2.45486879      -1.82211306      -2.08232943       0.00000000
Si      -2.40496600       2.43778221      -1.85374212       0.00000000
Si       2.38780449      -0.27311814       3.07953012       0.00000000
Si      -2.93606806       2.58465285       0.42658231       0.00000000
Si      -0.32777109       2.45640168       3.06548990       0.00000000
