10
Lattice="16.28999089631971 0.0 0.0 0.0 16.28999089631971 0.0 0.0 0.0 34.35334932831803" Properties=species:S:1:pos:R:3:initial_magmoms:R:1 pbc="T T T"
Si       1.35716877       1.35729909       1.39022929       0.00000000
Si      -1.35716877      -1.36018405       1.39332110       0.00000000
Si      -1.47313728       1.36761066      -1.42269666       0.00000000
Si       1.39984857      -1.41550652      -1.45182145       0.00000000
Si      -2.69866656      -2.71469235       0.02476534       0.00000000
Si       2.71326240       2.70503595       0.01575102       0.00000000
Si       2.71285515      -2.72390696       0.01990434       0.00000000
Si      -2.72461653       2.71412577       0.03674436       0.00000000
Si       2.71479366      -0.00008145       2.75076010       0.00000000
Si       0.00014661       2.71466334       2.75106928       0.00000000
