10
Lattice="16.28999089631971 0.0 0.0 0.0 16.28999089631971 0.0 0.0 0.0 34.35334932831803" Properties=species:S:1:pos:R:3:initial_magmoms:R:1 pbc="T T T"
Si       1.35659862       1.35677781       1.35712982       0.00000000
Si      -1.35677781       1.35812988      -1.35719853       0.00000000
Si      -1.35773892      -1.35845731       1.35699241       0.00000000
Si       1.35747828      -1.35995599      -1.35802301       0.00000000
Si      -2.70306486      -0.02202408      -2.71235991       0.00000000
Si      -0.00026064       2.71393029       2.71453447       0.00000000
Si      -0.00996948       2.71435383      -2.71459975       0.00000000
Si      -2.71606428       2.71301805       0.00106495       0.00000000
Si       2.71456560      -2.71466165       0.00058401       0.00000000
Si       2.71425609      -0.00078192       2.71504977       0.00000000
