10
Lattice="16.28999089631971 0.0 0.0 0.0 16.28999089631971 0.0 0.0 0.0 34.35334932831803" Properties=species:S:1:pos:R:3:initial_magmoms:R:1 pbc="T T T"
Si      -1.35650088      -1.35596628      -1.35664888       0.00000000
Si       1.35954711      -1.35291187       1.35953456       0.00000000
Si      -1.35602847       1.35989734       1.35791995       0.00000000
Si       1.35886293       1.35880592      -1.35651146       0.00000000
Si      -2.71313208       0.00113053      -2.71456883       0.00000000
Si       0.00213399      -2.71379901      -2.71398482       0.00000000
Si      -2.71334385      -2.71526511       0.00082448       0.00000000
Si      -2.71370223       2.71558372      -0.00017177       0.00000000
Si       0.00120546       2.71636565      -2.71443141       0.00000000
Si       2.71669959       0.00071187      -2.71425965       0.00000000
