10
Lattice="16.28999089631971 0.0 0.0 0.0 16.28999089631971 0.0 0.0 0.0 34.35334932831803" Properties=species:S:1:pos:R:3:initial_magmoms:R:1 pbc="T T T"
Si      -1.35767376       1.35568638      -1.35809172       0.00000000
Si       1.35602847      -1.35989734      -1.35791995       0.00000000
Si      -1.36176255      -1.35016896       1.37399733       0.00000000
Si       1.35034326       1.35863487       1.38007787       0.00000000
Si      -2.71423980       2.71370223       0.00762645       0.00000000
Si       2.71557558      -2.71280921       0.00161461       0.00000000
Si       0.00037467       2.71362078      -2.71494671       0.00000000
Si       2.71433754       2.71458189       0.00285133       0.00000000
Si       2.71489140      -0.00109143      -2.71443141       0.00000000
Si      -2.71466334      -0.00159642      -2.71508413       0.00000000
