10
Lattice="16.28999089631971 0.0 0.0 0.0 16.28999089631971 0.0 0.0 0.0 34.35334932831803" Properties=species:S:1:pos:R:3:initial_magmoms:R:1 pbc="T T T"
Si       0.44737227      -0.36906135      -2.26045165       0.00000000
Si      -2.10994596      -0.85270168       0.57658694       0.00000000
Si       1.61911197      -1.07291316       1.34665205       0.00000000
Si       0.14613759       2.34615422      -0.50530370       0.00000000
Si       1.29546225       1.80948017      -2.51198701       0.00000000
Si      -1.99029591      -0.05983154       2.76730125       0.00000000
Si      -1.53178128      -0.79105380      -3.38507787       0.00000000
Si       0.81547740      -3.28328601       1.81653742       0.00000000
Si      -3.77704827       0.50186558      -0.52347663       0.00000000
Si      -1.55589048       2.26186976       2.88929006       0.00000000
