10
Lattice="16.28999089631971 0.0 0.0 0.0 16.28999089631971 0.0 0.0 0.0 34.35334932831803" Properties=species:S:1:pos:R:3:initial_magmoms:R:1 pbc="T T T"
Si       2.15972820       0.54031812      -0.67239848       0.00000000
Si      -1.53319851       0.90136805      -1.52161375       0.00000000
Si      -0.12083922      -2.32738066      -0.56126533       0.00000000
Si      -0.28510758       1.05255554       2.13914990       0.00000000
Si      -1.68322941      -0.72304372       2.81374700       0.00000000
Si       2.07620937      -0.11171356      -2.94226295       0.00000000
Si       1.27257480      -2.32208641      -2.47237758       0.00000000
Si      -1.09879308       3.22306935      -1.39962494       0.00000000
Si      -3.69838386       0.38210313      -0.78463094       0.00000000
Si       1.00782972      -3.54041551       1.06169085       0.00000000
