10
Lattice="16.28999089631971 0.0 0.0 0.0 16.28999089631971 0.0 0.0 0.0 34.35334932831803" Properties=species:S:1:pos:R:3:initial_magmoms:R:1 pbc="T T T"
Si       1.20707271      -1.40398623       1.43627998       0.00000000
Si       0.70156143       2.00191068       1.07003872       0.00000000
Si      -2.31432030      -0.31056885       0.75093028       0.00000000
Si       0.86569947       1.75772358      -2.47103780       0.00000000
Si      -1.83655089       0.43463349       2.91354354       0.00000000
Si       0.05774805      -0.86731218       3.44296330       0.00000000
Si      -3.28755006       0.85066380      -1.07450466       0.00000000
Si      -2.23493913      -0.37040202      -2.92494886       0.00000000
Si      -1.07821881       2.61620658       2.44283368       0.00000000
Si       0.64641978       3.65521536      -0.60870734       0.00000000
