10
Lattice="16.28999089631971 0.0 0.0 0.0 16.28999089631971 0.0 0.0 0.0 34.35334932831803" Properties=species:S:1:pos:R:3:initial_magmoms:R:1 pbc="T T T"
Si       2.06443170       0.05237235      -1.04853351       0.00000000
Si       0.53168931      -1.47953925       1.74710926       0.00000000
Si      -0.54343440       2.24775936       0.48080975       0.00000000
Si      -1.75661586      -0.58979574      -1.47736661       0.00000000
Si      -1.65973923      -1.79118324       2.36670662       0.00000000
Si      -3.53639610       0.02450016      -0.10457165       0.00000000
Si      -2.89878921       0.30817422       2.12791635       0.00000000
Si      -2.08733544       2.71917567      -1.29086218       0.00000000
Si       0.60742152       2.17618110      -2.91003949       0.00000000
Si       3.65594841       0.24053814       0.90057356       0.00000000
