10
Lattice="16.28999089631971 0.0 0.0 0.0 16.28999089631971 0.0 0.0 0.0 34.35334932831803" Properties=species:S:1:pos:R:3:initial_magmoms:R:1 pbc="T T T"
Si       1.56081006       1.57749102      -0.84626088       0.00000000
Si      -0.31394088       0.42912747       2.34809366       0.00000000
Si       1.07087202      -2.15891370      -0.32312778       0.00000000
Si      -2.45110743       0.10717191      -0.67737972       0.00000000
Si       0.52751907       2.10514041      -2.83185123       0.00000000
Si       3.23983665      -1.68378327       0.48197776       0.00000000
Si      -1.93476330       2.24339364       2.30966804       0.00000000
Si      -0.69232500      -3.63017763       0.84924962       0.00000000
Si      -0.56956356       0.22662648      -3.77066008       0.00000000
Si      -3.06144486       2.29521213       0.16633901       0.00000000
