10
Lattice="16.28999089631971 0.0 0.0 0.0 16.28999089631971 0.0 0.0 0.0 34.35334932831803" Properties=species:S:1:pos:R:3:initial_magmoms:R:1 pbc="T T T"
Si       1.35749457      -1.35710361      -1.35774818       0.00000000
Si      -1.35728280       1.35793440      -1.35771383       0.00000000
Si      -1.35894438      -1.35728280       1.35716418       0.00000000
Si       1.35798327       1.35744570       1.35809172       0.00000000
Si       2.71383255       0.00241092      -2.71422529       0.00000000
Si       0.00104256       2.71350675      -2.71504977       0.00000000
Si       0.00042354      -2.71389771      -2.71515283       0.00000000
Si      -2.71463076      -2.71485882      -0.00034353       0.00000000
Si      -2.71461447       2.71533123      -0.00065271       0.00000000
Si       2.71538010      -2.71472850      -0.00034353       0.00000000
