10
Lattice="16.28999089631971 0.0 0.0 0.0 16.28999089631971 0.0 0.0 0.0 34.35334932831803" Properties=species:S:1:pos:R:3:initial_magmoms:R:1 pbc="T T T"
Si      -1.35734796      -1.35718506       1.35712982       0.00000000
Si       1.35733167      -1.35739683      -1.35706112       0.00000000
Si       1.35668007       1.35847197       1.35699241       0.00000000
Si      -1.35791811       1.35757602      -1.35699241       0.00000000
Si       0.00133578       2.71394658       2.71264504       0.00000000
Si       2.71179630       0.00241092       2.71717968       0.00000000
Si       2.71433754       2.71480995       0.00034353       0.00000000
Si      -2.71489140       0.00115659      -2.71504977       0.00000000
Si       2.71461447      -2.71533123       0.00065271       0.00000000
Si       2.71565703      -0.00182448      -2.71439706       0.00000000
