10
Lattice="16.28999089631971 0.0 0.0 0.0 16.28999089631971 0.0 0.0 0.0 34.35334932831803" Properties=species:S:1:pos:R:3:initial_magmoms:R:1 pbc="T T T"
Si      -1.35511623       1.35606105      -1.36018727       0.00000000
Si       1.36080144      -1.36029645      -1.35843525       0.00000000
Si       1.37808513       1.34309421       1.36939398       0.00000000
Si      -1.37138994      -1.36609569       1.39244509       0.00000000
Si      -0.08430075       2.58450624       2.72312282       0.00000000
Si      -2.71046052       2.71153566      -0.00453464       0.00000000
Si      -2.71047681      -2.71696023       0.00243909       0.00000000
Si      -2.71179630      -0.00241092      -2.71717968       0.00000000
Si       0.00254124       2.71239903      -2.71683615       0.00000000
Si       2.72143998       2.71275741      -0.00326357       0.00000000
