10
Lattice="16.28999089631971 0.0 0.0 0.0 16.28999089631971 0.0 0.0 0.0 34.35334932831803" Properties=species:S:1:pos:R:3:initial_magmoms:R:1 pbc="T T T"
Si      -1.46238588       1.24141203       1.35372884       0.00000000
Si       1.34335485       1.36966320      -1.37265755       0.00000000
Si      -1.37808513      -1.34309421      -1.36939398       0.00000000
Si       1.26706878      -1.44598185       1.51505226       0.00000000
Si      -2.44299501      -0.51888537       2.75620511       0.00000000
Si       2.68843644       2.70457983      -0.00195814       0.00000000
Si       2.68864821      -2.70790299       0.00752339       0.00000000
Si      -0.44004177      -2.18522205       3.12107224       0.00000000
Si       2.69558775       0.01295055      -2.72927207       0.00000000
Si      -0.01728369      -2.70339066      -2.72782923       0.00000000
