10
Lattice="16.28999089631971 0.0 0.0 0.0 16.28999089631971 0.0 0.0 0.0 34.35334932831803" Properties=species:S:1:pos:R:3:initial_magmoms:R:1 pbc="T T T"
Si      -1.23795855       0.11802105       1.98459410       0.00000000
Si       1.85824917       1.45350783       0.03112415       0.00000000
Si       0.54343440      -2.24775936      -0.48080975       0.00000000
Si      -1.54390104       0.47141631      -1.77167192       0.00000000
Si      -2.35535481      -1.93958514       1.64710661       0.00000000
Si       1.15085592      -0.07157826      -3.39084924       0.00000000
Si      -2.89013922       1.64525742       1.40529325       0.00000000
Si      -0.74236788       2.52459162      -2.49797084       0.00000000
Si      -1.21318146      -2.83755510      -1.95817636       0.00000000
Si       2.75784813       1.34822556      -2.10926247       0.00000000
