10
Lattice="16.28999089631971 0.0 0.0 0.0 16.28999089631971 0.0 0.0 0.0 34.35334932831803" Properties=species:S:1:pos:R:3:initial_magmoms:R:1 pbc="T T T"
Si      -1.35617508       1.35821133       1.36097740       0.00000000
Si       1.36888128       1.35040842      -1.35651490       0.00000000
Si       1.35954711      -1.36058967       1.36056516       0.00000000
Si      -1.35404109      -1.36708938      -1.37111852       0.00000000
Si      -0.00211770       2.61926910      -2.77032778       0.00000000
Si      -2.71218726       2.71309950      -0.00075577       0.00000000
Si      -2.71233387      -2.71668330       0.00140849       0.00000000
Si      -2.71402803      -0.00118917       2.71796981       0.00000000
Si       0.00166158       2.71371852       2.71831334       0.00000000
Si       2.71572219      -2.71735119       0.00518736       0.00000000
