10
Lattice="16.28999089631971 0.0 0.0 0.0 16.28999089631971 0.0 0.0 0.0 34.35334932831803" Properties=species:S:1:pos:R:3:initial_magmoms:R:1 pbc="T T T"
Si      -1.35534429       1.35547461       1.35565263       0.00000000
Si       1.35765747       1.35633798      -1.35664888       0.00000000
Si       1.35511623      -1.35606105       1.36018727       0.00000000
Si      -1.35668007      -1.35847197      -1.35699241       0.00000000
Si      -0.00353493       2.68947900       2.71456883       0.00000000
Si      -2.71438641       2.71254564       0.00116801       0.00000000
Si       2.71518462       2.71213839       0.00082448       0.00000000
Si       0.00109143       2.71401174      -2.71364129       0.00000000
Si      -2.71459818      -0.00089595      -2.71398482       0.00000000
Si       2.71528236      -0.00083079      -2.71415659       0.00000000
