10
Lattice="16.28999089631971 0.0 0.0 0.0 16.28999089631971 0.0 0.0 0.0 34.35334932831803" Properties=species:S:1:pos:R:3:initial_magmoms:R:1 pbc="T T T"
Si      -0.98547984       1.95889761       0.66532169       0.00000000
Si       2.26797525       0.36755127       0.12271023       0.00000000
Si      -0.23304474      -1.88910243       1.32607438       0.00000000
Si      -0.67701240      -0.53471925      -2.20947125       0.00000000
Si      -2.96463339       1.53690516      -0.45930454       0.00000000
Si      -0.17208756      -3.38450814      -0.49224942       0.00000000
Si       2.49812037       2.45871879      -0.95279068       0.00000000
Si       3.18907701      -1.39880601      -1.03860539       0.00000000
Si      -1.67008338      -2.64225429      -2.10273533       0.00000000
Si      -2.23793649       1.09876410      -2.84497421       0.00000000
