10
Lattice="16.28999089631971 0.0 0.0 0.0 16.28999089631971 0.0 0.0 0.0 34.35334932831803" Properties=species:S:1:pos:R:3:initial_magmoms:R:1 pbc="T T T"
Si       1.15240347       0.38548656       2.00149596       0.00000000
Si       0.91166985      -0.86540625      -2.04993421       0.00000000
Si      -0.50717286       2.33701457      -0.29423660       0.00000000
Si      -1.28619324      -2.02882176       0.30887114       0.00000000
Si      -1.96476948       1.78598903       1.44984957       0.00000000
Si      -2.88034893      -1.52477658      -1.38059317       0.00000000
Si       0.56360142      -3.61830222      -0.00900058       0.00000000
Si      -1.07018784      -2.08510371      -2.84682930       0.00000000
Si       2.89667151      -1.10630277       2.21225387       0.00000000
Si       2.21719932      -2.73500955      -1.50306293       0.00000000
