10
Lattice="16.28999089631971 0.0 0.0 0.0 16.28999089631971 0.0 0.0 0.0 34.35334932831803" Properties=species:S:1:pos:R:3:initial_magmoms:R:1 pbc="T T T"
Si       1.31300658      -1.30840044       1.47172579       0.00000000
Si       1.80708228       1.06936031      -1.12688977       0.00000000
Si      -1.45917675      -1.32811134      -1.37291661       0.00000000
Si      -1.39984857       1.41550652       1.45182145       0.00000000
Si      -2.34613467       0.59507696      -2.61338239       0.00000000
Si       2.78614386      -2.52234753       0.02416416       0.00000000
Si      -0.04057839      -2.65620246       2.84490207       0.00000000
Si      -2.76074775      -2.75255781       0.07210085       0.00000000
Si       2.67268401       0.05508626       2.84222251       0.00000000
Si       2.78135460       2.76428594       0.13758524       0.00000000
