10
Lattice="16.28999089631971 0.0 0.0 0.0 16.28999089631971 0.0 0.0 0.0 34.35334932831803" Properties=species:S:1:pos:R:3:initial_magmoms:R:1 pbc="T T T"
Si       1.35850455      -1.35532541       1.36046210       0.00000000
Si      -1.35773892       1.36033880       1.36035904       0.00000000
Si       1.38804013       1.35660839      -1.34296937       0.00000000
Si      -1.35967743      -1.36348670      -1.37049672       0.00000000
Si       0.11345985      -2.57743379      -2.81805835       0.00000000
Si       0.10867059       2.70919967      -2.70463727       0.00000000
Si      -2.71326240      -2.71128872       0.00267956       0.00000000
Si       2.71231173       2.71468940       0.00608055       0.00000000
Si       2.71279066      -2.71725086       0.00178638       0.00000000
Si      -0.00042354      -2.71311320       2.71796981       0.00000000
