10
Lattice="16.28999089631971 0.0 0.0 0.0 16.28999089631971 0.0 0.0 0.0 34.35334932831803" Properties=species:S:1:pos:R:3:initial_magmoms:R:1 pbc="T T T"
Si      -2.04358050      -0.37400537       1.09178441       0.00000000
Si       0.46240794      -0.87746574      -2.16522411       0.00000000
Si       1.50784673      -1.39775042       1.25108098       0.00000000
Si       0.56477430       2.37548925       0.13871890       0.00000000
Si      -2.37387654       1.60300116       2.31658505       0.00000000
Si      -1.72538793       3.20631183       0.57387302       0.00000000
Si       1.51321412       0.93590937      -3.29112141       0.00000000
Si       3.35188646      -0.11618028       1.76177815       0.00000000
Si       2.20471045       2.78223426      -1.73721549       0.00000000
Si       2.13920673      -2.71600631      -1.96618069       0.00000000
