10
Lattice="16.28999089631971 0.0 0.0 0.0 16.28999089631971 0.0 0.0 0.0 34.35334932831803" Properties=species:S:1:pos:R:3:initial_magmoms:R:1 pbc="T T T"
Si       2.01078873       1.18614006      -0.28344964       0.00000000
Si      -0.82948680      -0.45354618      -2.17030841       0.00000000
Si      -1.35190710       1.76432103       0.82970256       0.00000000
Si       0.66872079      -1.77288957       1.44445609       0.00000000
Si       0.19955250      -1.01634939       3.62757830       0.00000000
Si       3.05154382      -1.90755900       1.13585978       0.00000000
Si      -3.13470099      -0.75183237      -2.02853206       0.00000000
Si       0.18083529       3.29623263      -1.96594022       0.00000000
Si      -0.30081114       2.76778503       2.65682082       0.00000000
Si       3.66630463       0.38819070       1.14255868       0.00000000
