10
Lattice="16.28999089631971 0.0 0.0 0.0 16.28999089631971 0.0 0.0 0.0 34.35334932831803" Properties=species:S:1:pos:R:3:initial_magmoms:R:1 pbc="T T T"
Si       1.35977517      -1.35624024       1.36087434       0.00000000
Si      -1.35835794       1.36068741       1.36204236       0.00000000
Si      -1.35865116      -1.36524861      -1.37420345       0.00000000
Si       1.37155921       1.37062431      -1.37186742       0.00000000
Si      -2.71474479      -2.71298547       0.00027483       0.00000000
Si       0.10928961      -2.72150514      -2.70419067       0.00000000
Si       2.71293075      -2.71601541       0.00652714       0.00000000
Si      -2.71497285       2.71502172       0.00584007       0.00000000
Si       2.71121542       2.71964808       0.00628667       0.00000000
Si       0.00052128      -2.71383255       2.71841640       0.00000000
