10
Lattice="16.28999089631971 0.0 0.0 0.0 16.28999089631971 0.0 0.0 0.0 34.35334932831803" Properties=species:S:1:pos:R:3:initial_magmoms:R:1 pbc="T T T"
Si       0.81769284       2.16559260      -0.45092232       0.00000000
Si       1.53690516      -0.68971860       1.77730587       0.00000000
Si      -0.05613534      -1.50275250      -1.98871650       0.00000000
Si      -1.99848978      -0.93714741       2.51648730       0.00000000
Si       2.42958087       1.31800761      -1.98098700       0.00000000
Si       0.96640166       0.11916135      -3.39651755       0.00000000
Si       0.42989310       3.18959829       1.81457928       0.00000000
Si      -3.45549996       1.18666134       0.65498132       0.00000000
Si      -1.84850775       2.60646516       1.93656809       0.00000000
Si       0.89687757      -2.96549676       2.09005894       0.00000000
