10
Lattice="16.28999089631971 0.0 0.0 0.0 16.28999089631971 0.0 0.0 0.0 34.35334932831803" Properties=species:S:1:pos:R:3:initial_magmoms:R:1 pbc="T T T"
Si      -0.64848861      -1.60331067       1.74271203       0.00000000
Si       2.29016223      -0.83082258      -0.43515412       0.00000000
Si      -1.31453784      -0.26797050      -2.28930848       0.00000000
Si       0.36183348       2.14646814       1.94708022       0.00000000
Si       3.25720083       0.11811879       1.52065186       0.00000000
Si      -0.31819257      -3.58031720       0.51791138       0.00000000
Si       1.72538793      -3.20631183      -0.57387302       0.00000000
Si       2.30418792       1.58086305      -2.55812359       0.00000000
Si       0.45944316       0.46416726      -3.83617196       0.00000000
Si       2.36032326       3.08361555      -0.56940708       0.00000000
