10
Lattice="16.28999089631971 0.0 0.0 0.0 16.28999089631971 0.0 0.0 0.0 34.35334932831803" Properties=species:S:1:pos:R:3:initial_magmoms:R:1 pbc="T T T"
Si      -1.81985364      -0.11497482      -1.44297889       0.00000000
Si       0.62411877      -2.24323074       0.27671638       0.00000000
Si      -0.76303989       1.34820927       1.78582551       0.00000000
Si       2.03371920       1.03350276      -0.73430325       0.00000000
Si       1.50472263      -0.25075197       3.21777697       0.00000000
Si       0.54936396      -2.30661513       2.69210172       0.00000000
Si      -2.73039948       2.03401827      -1.37815409       0.00000000
Si      -0.26256222       3.54097359       0.94121359       0.00000000
Si       3.74110343      -0.53172189      -0.39430796       0.00000000
Si       2.68973054      -2.57144166      -0.90222252       0.00000000
