10
Lattice="16.28999089631971 0.0 0.0 0.0 16.28999089631971 0.0 0.0 0.0 34.35334932831803" Properties=species:S:1:pos:R:3:initial_magmoms:R:1 pbc="T T T"
Si       0.76303989      -1.34820927      -1.78582551       0.00000000
Si      -0.02606400      -0.74301948       2.28030790       0.00000000
Si       0.50047767       2.19276432      -0.84461192       0.00000000
Si      -2.50489701       0.09962964       0.56552515       0.00000000
Si       2.26776252      -1.59896124       1.43195146       0.00000000
Si      -1.05681375      -1.46318409      -3.22880440       0.00000000
Si      -0.82587042      -3.16164465       1.89376379       0.00000000
Si       2.79675909      -0.31470651      -2.52012876       0.00000000
Si      -1.96735959       0.68580900      -3.16397959       0.00000000
Si      -2.46483990       2.09868957       2.05628958       0.00000000
