10
Lattice="16.28999089631971 0.0 0.0 0.0 16.28999089631971 0.0 0.0 0.0 34.35334932831803" Properties=species:S:1:pos:R:3:initial_magmoms:R:1 pbc="T T T"
Si      -1.42069977      -1.26335466       1.36171398       0.00000000
Si      -1.39836618       1.04804973      -1.55455863       0.00000000
Si       1.35092970       1.49478669       1.32285345       0.00000000
Si       1.04040972      -1.79365932      -1.33054032       0.00000000
Si      -1.43842329      -0.95101020      -3.04532306       0.00000000
Si      -2.46273849       2.81471652      -0.16249143       0.00000000
Si       2.80313419      -2.50273044       0.10142767       0.00000000
Si      -0.03200985      -2.63321334       2.73114231       0.00000000
Si       2.69820052       0.10265958       2.73347834       0.00000000
Si      -2.74116717       0.10564065       2.74604480       0.00000000
