10
Lattice="16.28999089631971 0.0 0.0 0.0 16.28999089631971 0.0 0.0 0.0 34.35334932831803" Properties=species:S:1:pos:R:3:initial_magmoms:R:1 pbc="T T T"
Si      -0.89959896       0.10528227       2.14038663       0.00000000
Si      -1.34765541       1.22189661      -1.49285998       0.00000000
Si       2.27840085       0.58313313      -0.12198881       0.00000000
Si      -1.60699221      -1.41980382      -1.28158677       0.00000000
Si      -0.13905144       3.16206819      -0.93506434       0.00000000
Si       2.05568397       2.92799718       0.03105545       0.00000000
Si      -0.14998203      -3.54361257       0.57991921       0.00000000
Si       2.66620059      -0.44087256      -2.38749041       0.00000000
Si      -3.50021601       1.17636606      -0.38870836       0.00000000
Si      -2.75784813      -1.34822556       2.10926247       0.00000000
