10
Lattice="16.28999089631971 0.0 0.0 0.0 16.28999089631971 0.0 0.0 0.0 34.35334932831803" Properties=species:S:1:pos:R:3:initial_magmoms:R:1 pbc="T T T"
Si       2.13142825       1.07704593      -0.03476561       0.00000000
Si      -0.62483553       1.67661567       1.59516431       0.00000000
Si      -0.50047767      -2.19276432       0.84461192       0.00000000
Si      -0.68128038       0.00138465      -2.38374589       0.00000000
Si      -0.45791190       3.38525748      -0.00278262       0.00000000
Si       1.49290261       2.98216143      -1.32542166       0.00000000
Si       0.26256222      -3.54097359      -0.94121359       0.00000000
Si      -2.46783726      -1.50695532      -2.31936768       0.00000000
Si       3.55691240      -0.60575994      -0.88497713       0.00000000
Si       2.29628142      -2.50747083      -1.67551684       0.00000000
