10
Lattice="16.28999089631971 0.0 0.0 0.0 16.28999089631971 0.0 0.0 0.0 34.35334932831803" Properties=species:S:1:pos:R:3:initial_magmoms:R:1 pbc="T T T"
Si      -1.10387556      -0.10966428      -2.07322579       0.00000000
Si       0.83948886      -2.10859389       0.67988752       0.00000000
Si       2.12315715       0.93529035      -0.49032563       0.00000000
Si      -0.97801902       1.12550868       1.85635298       0.00000000
Si       1.06285734       1.27527894       3.06085078       0.00000000
Si       3.01367185       0.87218289       1.73821174       0.00000000
Si      -2.92856733      -1.49757228      -1.69990773       0.00000000
Si       2.29351797      -2.62428642      -1.29354174       0.00000000
Si      -0.94706802      -3.61693386       0.74426573       0.00000000
Si       3.31982937      -0.55858410      -1.90802044       0.00000000
