10
Lattice="16.28999089631971 0.0 0.0 0.0 16.28999089631971 0.0 0.0 0.0 34.35334932831803" Properties=species:S:1:pos:R:3:initial_magmoms:R:1 pbc="T T T"
Si      -1.35754670       1.35736991      -1.35747336       0.00000000
Si       1.35713619       1.35799871       1.35764512       0.00000000
Si      -1.35648296      -1.35900781       1.35730159       0.00000000
Si       1.35809730      -1.35824218      -1.35719853       0.00000000
Si      -2.71336733      -0.00011230      -2.71501542       0.00000000
Si      -2.71470910       2.71442791       0.00020612       0.00000000
Si       2.71564074       2.71411840      -0.00013741       0.00000000
Si       0.00092853       2.71613836      -2.71419094       0.00000000
Si       2.71551042      -0.00025045      -2.71498107       0.00000000
Si       0.00040725      -2.71383082       2.71666438       0.00000000
