10
Lattice="16.28999089631971 0.0 0.0 0.0 16.28999089631971 0.0 0.0 0.0 34.35334932831803" Properties=species:S:1:pos:R:3:initial_magmoms:R:1 pbc="T T T"
Si       1.63297054       0.07040538      -1.94051873       0.00000000
Si      -1.01100627      -1.73481984       1.56775861       0.00000000
Si       1.72078668       0.99882135       1.63251471       0.00000000
Si      -1.77536565       1.87924698       0.31191117       0.00000000
Si      -1.41982011      -0.41086638      -2.61539065       0.00000000
Si       1.47781644       2.64075561      -1.54641688       0.00000000
Si       0.32679904       2.31433659       2.98869638       0.00000000
Si      -2.39371776      -0.42533190       2.99077476       0.00000000
Si       3.18664070       2.26316970       0.23047675       0.00000000
Si      -2.36193597      -3.22960653       0.24490516       0.00000000
