10
Lattice="16.28999089631971 0.0 0.0 0.0 16.28999089631971 0.0 0.0 0.0 34.35334932831803" Properties=species:S:1:pos:R:3:initial_magmoms:R:1 pbc="T T T"
Si       0.61149402       1.98997011       1.09759012       0.00000000
Si      -2.25649080       0.59538321      -0.36984837       0.00000000
Si       0.31141593      -1.98716823       1.28505646       0.00000000
Si       1.19057324      -0.51398208      -2.00792004       0.00000000
Si       0.80068608      -2.82598920      -2.30906167       0.00000000
Si       1.90297892       3.19363725      -0.44302104       0.00000000
Si       3.51201716      -0.27948753      -1.32428800       0.00000000
Si       1.50808815      -3.48104268      -0.13263836       0.00000000
Si      -1.37026593       3.18391701       1.68527320       0.00000000
Si      -1.81174122      -2.92245858       1.77538209       0.00000000
