10
Lattice="16.28999089631971 0.0 0.0 0.0 16.28999089631971 0.0 0.0 0.0 34.35334932831803" Properties=species:S:1:pos:R:3:initial_magmoms:R:1 pbc="T T T"
Si       0.78319062       0.46126764      -2.16848768       0.00000000
Si       1.09441107      -1.47602061       1.48306927       0.00000000
Si      -2.31211952      -0.46524240       0.17527089       0.00000000
Si       0.08377947       1.94528664       1.35589310       0.00000000
Si       2.95516890      -0.38581236      -1.76995425       0.00000000
Si      -2.35917970      -0.72200538       2.51634989       0.00000000
Si      -0.53727678       3.49721865      -0.30512662       0.00000000
Si       0.90033201       2.78912493      -2.05151446       0.00000000
Si      -1.09854873       1.17970551       3.30688961       0.00000000
Si      -0.65179548      -2.28723003       2.85634518       0.00000000
