10
Lattice="16.28999089631971 0.0 0.0 0.0 16.28999089631971 0.0 0.0 0.0 34.35334932831803" Properties=species:S:1:pos:R:3:initial_magmoms:R:1 pbc="T T T"
Si       1.33965621       1.34902377       1.37815409       0.00000000
Si      -1.37155921      -1.37062431       1.37186742       0.00000000
Si      -1.34727082       1.39212711      -1.41062489       0.00000000
Si       1.54608797      -1.21987665      -1.39907185       0.00000000
Si       0.10493366      -2.60539002      -2.63205066       0.00000000
Si       2.68926804       2.69276958       0.01433910       0.00000000
Si      -2.72998231       2.70161505       0.01239126       0.00000000
Si      -2.69820052      -0.10265958      -2.73347834       0.00000000
Si       2.70317970      -0.00965997       2.73160810       0.00000000
Si      -0.01158900       2.70267390       2.73415025       0.00000000
