10
Lattice="16.28999089631971 0.0 0.0 0.0 16.28999089631971 0.0 0.0 0.0 34.35334932831803" Properties=species:S:1:pos:R:3:initial_magmoms:R:1 pbc="T T T"
Si       1.34961184       1.34374581      -1.36381499       0.00000000
Si      -1.35124520       1.35365013       1.35599616       0.00000000
Si      -1.33965621      -1.34902377      -1.37815409       0.00000000
Si       1.36352350      -1.35868374       1.35345401       0.00000000
Si       2.35160974      -0.36228960      -2.73104127       0.00000000
Si       0.20643177      -2.56890042      -2.77722594       0.00000000
Si      -2.71115026      -0.00257382       2.71267939       0.00000000
Si       0.00343067       2.71140534       2.71285116       0.00000000
Si      -2.71310506       2.71127502      -0.00381322       0.00000000
Si      -2.71121542      -2.71964808      -0.00628667       0.00000000
