10
Lattice="16.28999089631971 0.0 0.0 0.0 16.28999089631971 0.0 0.0 0.0 34.35334932831803" Properties=species:S:1:pos:R:3:initial_magmoms:R:1 pbc="T T T"
Si       1.35120663       1.36080144      -1.36506545       0.00000000
Si      -1.36394541      -1.35632169      -1.36558075       0.00000000
Si       1.17345015      -1.31237127       1.57547983       0.00000000
Si      -1.21880151       1.39295790       1.46864086       0.00000000
Si      -0.75098529      -1.98825966       2.97266569       0.00000000
Si      -2.49326432      -0.09246204       2.78805068       0.00000000
Si       2.13985440       0.30294513       3.10647206       0.00000000
Si       2.70716994      -2.70342324       0.03991861       0.00000000
Si      -2.70736216      -2.71712313       0.00261086       0.00000000
Si      -2.70592213       2.72562651       0.02332594       0.00000000
