10
Lattice="16.28999089631971 0.0 0.0 0.0 16.28999089631971 0.0 0.0 0.0 34.35334932831803" Properties=species:S:1:pos:R:3:initial_magmoms:R:1 pbc="T T T"
Si       1.27446281       1.48541994      -1.31940983       0.00000000
Si      -1.46317920      -1.19884626      -1.41553055       0.00000000
Si      -1.61188803       0.84758499       1.53006468       0.00000000
Si       1.74227903      -1.89579762       0.18461500       0.00000000
Si      -2.42958087      -1.31800761       1.98098700       0.00000000
Si       2.82639482       2.16979542       0.49626876       0.00000000
Si       2.49326432       0.09246204      -2.78805068       0.00000000
Si      -2.48571621      -2.82076011      -0.00772951       0.00000000
Si       1.29769235      -2.15923950       2.79419994       0.00000000
Si      -0.21409784      -2.62466109      -2.78543983       0.00000000
