10
Lattice="16.28999089631971 0.0 0.0 0.0 16.28999089631971 0.0 0.0 0.0 34.35334932831803" Properties=species:S:1:pos:R:3:initial_magmoms:R:1 pbc="T T T"
Si       2.31912422       0.16035876       0.47466049       0.00000000
Si      -0.70740207       0.65505348      -2.17642331       0.00000000
Si      -1.19667222       1.49387445       1.41769481       0.00000000
Si      -1.02631140      -2.06570232       0.61447870       0.00000000
Si      -2.94445890      -0.25669782      -1.90953199       0.00000000
Si      -0.31751491       2.96706060      -1.87528168       0.00000000
Si      -2.45922867      -2.48010363      -1.31027183       0.00000000
Si      -1.50808815       3.48104268       0.13263836       0.00000000
Si      -3.31982937       0.55858410       1.90802044       0.00000000
Si       2.94018047      -1.39157325       2.13568021       0.00000000
