10
Lattice="16.28999089631971 0.0 0.0 0.0 16.28999089631971 0.0 0.0 0.0 34.35334932831803" Properties=species:S:1:pos:R:3:initial_magmoms:R:1 pbc="T T T"
Si      -1.39398764       1.31551524       1.35618167       0.00000000
Si       1.30474592      -1.43299872       1.36020789       0.00000000
Si       1.46585402       1.26434835      -1.40203796       0.00000000
Si      -1.72078668      -0.99882135      -1.63251471       0.00000000
Si      -0.24297024       1.64193426      -3.17893159       0.00000000
Si       2.28318848      -0.41806656      -2.85436097       0.00000000
Si      -0.08781613      -0.92841597      -3.57303344       0.00000000
Si      -0.04267165       2.64564261       2.71996918       0.00000000
Si       2.67581006      -0.06173910       2.72182426       0.00000000
Si      -3.49615233       0.88042563      -1.32060354       0.00000000
