10
Lattice="16.28999089631971 0.0 0.0 0.0 16.28999089631971 0.0 0.0 0.0 34.35334932831803" Properties=species:S:1:pos:R:3:initial_magmoms:R:1 pbc="T T T"
Si       1.35689021      -1.35482301       1.35936279       0.00000000
Si      -1.35863033      -1.35643572      -1.35726724       0.00000000
Si       1.35648296       1.35900781      -1.35730159       0.00000000
Si      -1.35818864       1.36101321       1.36321037       0.00000000
Si       2.71298384      -2.71448415       0.00037789       0.00000000
Si      -0.00136184      -2.71401174      -2.71408788       0.00000000
Si       2.71458026       0.00076563      -2.71450012       0.00000000
Si      -2.71734372      -2.71300176      -0.00030918       0.00000000
Si      -2.71581246       0.00110772      -2.71480930       0.00000000
Si       2.71361915       2.71700651       0.00034353       0.00000000
