10
Lattice="16.28999089631971 0.0 0.0 0.0 16.28999089631971 0.0 0.0 0.0 34.35334932831803" Properties=species:S:1:pos:R:3:initial_magmoms:R:1 pbc="T T T"
Si       1.39610187      -1.27988901      -1.48547401       0.00000000
Si       1.60972893       1.22772258       1.34352589       0.00000000
Si      -1.29604706       1.45274124      -1.48482129       0.00000000
Si      -2.00797382      -0.82482786       1.29326691       0.00000000
Si       3.33822825      -0.60532011       1.40371299       0.00000000
Si       2.71228500      -2.60493390       0.05149570       0.00000000
Si      -2.72613869      -2.66898618      -0.03016226       0.00000000
Si      -2.63396643       2.82708782      -0.03167381       0.00000000
Si       0.04776228      -2.62044198      -2.86850627       0.00000000
Si       2.74069476       2.79108692      -0.02315417       0.00000000
