10
Lattice="16.28999089631971 0.0 0.0 0.0 16.28999089631971 0.0 0.0 0.0 34.35334932831803" Properties=species:S:1:pos:R:3:initial_magmoms:R:1 pbc="T T T"
Si       0.09487296       0.75878820       2.19023336       0.00000000
Si      -0.89902881      -2.17476387      -0.16994611       0.00000000
Si      -1.21422402       0.86643252      -1.83625625       0.00000000
Si       2.31555834       0.26280657      -0.71970307       0.00000000
Si       0.53857998      -2.88285759      -1.91633396       0.00000000
Si       0.40827627       0.32941638      -3.47975576       0.00000000
Si       2.64670146      -2.04832089      -1.20525358       0.00000000
Si      -0.86423337       3.15224532      -1.59458031       0.00000000
Si       1.63859481      -0.67732191       3.33849471       0.00000000
Si       0.80879850       3.04730514       2.15557081       0.00000000
