10
Lattice="10.86 0.0 0.0 0.0 10.86 0.0 0.0 0.0 10.86" Properties=species:S:1:pos:R:3:initial_magmoms:R:1 pbc="T T T"
Si       1.07549838      -1.63073760      -0.98462190       0.00000000
Si      -1.63950162       1.08426240      -0.98462190       0.00000000
Si       1.07549838       1.08426240       1.73037810       0.00000000
Si       2.43299838      -0.27323760      -2.34212190       0.00000000
Si      -0.28200162       2.44176240      -2.34212190       0.00000000
Si       2.43299838       2.44176240       0.37287810       0.00000000
Si      -2.91604032      -0.37009794      -2.24469684       0.00000000
Si      -0.04766454      -3.02861508      -2.26299594       0.00000000
Si       2.43299838      -2.98823760       0.37287810       0.00000000
Si      -2.99700162       2.44176240       0.37287810       0.00000000
