10
Lattice="16.28999089631971 0.0 0.0 0.0 16.28999089631971 0.0 0.0 0.0 34.56409401068381" Properties=species:S:1:pos:R:3:initial_magmoms:R:1 pbc="T T T"
Si       1.35641943      -1.35284221       1.35975222       0.00000000
Si      -1.35778779      -1.35598856      -1.35643406       0.00000000
Si       1.35700587       1.35832536      -1.35622668       0.00000000
Si      -1.35612621       1.35720135       1.36192976       0.00000000
Si      -2.71389608      -2.71167317       0.00072585       0.00000000
Si       2.71378368      -2.71362797       0.00186646       0.00000000
Si      -0.00034209      -2.71379087      -2.71393961       0.00000000
Si      -2.71506407       0.00164203      -2.71366310       0.00000000
Si       2.71503801       0.00128691      -2.71383592       0.00000000
Si      -0.00057015       2.71617831      -2.71359397       0.00000000
