10
Lattice="16.28999089631971 0.0 0.0 0.0 16.28999089631971 0.0 0.0 0.0 34.56409401068381" Properties=species:S:1:pos:R:3:initial_magmoms:R:1 pbc="T T T"
Si      -1.35464382      -1.33147625      -1.38567530       0.00000000
Si      -1.37373570       1.35729257       1.38940823       0.00000000
Si       1.36547667       1.37565140      -1.38322125       0.00000000
Si       1.31015583      -1.43490206       1.53848325       0.00000000
Si       0.36965268       2.29492868       2.69430720       0.00000000
Si       2.19299238       0.57061589       2.79990056       0.00000000
Si       2.71215468      -2.68432877      -0.00694739       0.00000000
Si      -2.70112635      -2.69934815       0.00653262       0.00000000
Si       0.00272043      -2.69226200      -2.74356106       0.00000000
Si      -2.70659979       2.73615962      -0.02291601       0.00000000
