10
Lattice="16.28999089631971 0.0 0.0 0.0 16.28999089631971 0.0 0.0 0.0 34.56409401068381" Properties=species:S:1:pos:R:3:initial_magmoms:R:1 pbc="T T T"
Si      -0.99412983       1.84088403      -1.01456042       0.00000000
Si      -1.81493406      -1.17672607       0.95773702       0.00000000
Si       1.60378308       1.02118752       1.43416875       0.00000000
Si       1.21456611      -1.35449721      -2.00941929       0.00000000
Si       1.37617920       2.51105463      -1.92214491       0.00000000
Si       2.93759199       1.88905356      -0.31650359       0.00000000
Si       2.15197416      -2.74430204       0.40543705       0.00000000
Si      -2.49825069       0.73388079      -2.43251860       0.00000000
Si      -0.99869103      -2.02047218       3.00638658       0.00000000
Si      -2.06531136      -3.13819424      -0.35203549       0.00000000
