10
Lattice="16.28999089631971 0.0 0.0 0.0 16.28999089631971 0.0 0.0 0.0 34.56409401068381" Properties=species:S:1:pos:R:3:initial_magmoms:R:1 pbc="T T T"
Si       0.67416165      -1.25947275      -1.81095215       0.00000000
Si      -1.10964222      -1.41113021       1.45186558       0.00000000
Si       2.02514022       0.46642017       1.11932425       0.00000000
Si      -1.75343931       1.17726690      -1.10688117       0.00000000
Si      -2.04766929       0.33522051       2.84894704       0.00000000
Si      -0.41963040       2.04513294      -2.85755351       0.00000000
Si      -1.20524823      -2.58822266      -2.13561287       0.00000000
Si      -2.27959002      -2.86363769      -0.02263949       0.00000000
Si       3.66562467      -0.56777492      -0.33706923       0.00000000
Si       2.61289971      -2.46451640      -1.23421536       0.00000000
