10
Lattice="16.28999089631971 0.0 0.0 0.0 16.28999089631971 0.0 0.0 0.0 34.56409401068381" Properties=species:S:1:pos:R:3:initial_magmoms:R:1 pbc="T T T"
Si      -1.34936586      -1.34302905       1.38638732       0.00000000
Si       1.36798533       1.36907676       1.38690579       0.00000000
Si      -1.19078271       1.43832555      -1.55067055       0.00000000
Si       1.27974240      -1.50097689      -1.44944264       0.00000000
Si       2.37180771       0.13103676      -2.76501988       0.00000000
Si       0.71524503       2.15119224      -2.96452395       0.00000000
Si      -2.68636761       2.71178001       0.00842673       0.00000000
Si      -2.71637379      -2.69407278       0.01833281       0.00000000
Si       2.72500749      -2.70536175       0.01566100       0.00000000
Si       2.72357397       2.71316466       0.03811730       0.00000000
