10
Lattice="16.28999089631971 0.0 0.0 0.0 16.28999089631971 0.0 0.0 0.0 34.56409401068381" Properties=species:S:1:pos:R:3:initial_magmoms:R:1 pbc="T T T"
Si       0.08773794      -2.18698137       0.70227365       0.00000000
Si      -0.59707737       0.38167470       2.26609240       0.00000000
Si       1.93686471       1.37337732      -0.11789819       0.00000000
Si      -1.82842218       0.53458893      -1.42497470       0.00000000
Si       1.24265007      -2.71898019      -1.35771294       0.00000000
Si      -0.36530325       1.95294294      -2.67526237       0.00000000
Si       2.65395051       1.19407329       2.08535665       0.00000000
Si      -0.13035258       2.75871150       2.35519868       0.00000000
Si       0.98894961       3.32467497      -1.07076167       0.00000000
Si       2.28019275      -0.98034849      -2.69835120       0.00000000
