10
Lattice="16.28999089631971 0.0 0.0 0.0 16.28999089631971 0.0 0.0 0.0 34.56409401068381" Properties=species:S:1:pos:R:3:initial_magmoms:R:1 pbc="T T T"
Si       1.09589346      -0.56816262       2.02165499       0.00000000
Si       0.59707737      -0.38167470      -2.26609240       0.00000000
Si      -1.96560027       1.27576764       0.47615523       0.00000000
Si       0.46672479       2.37703680       0.08910628       0.00000000
Si       0.68481531      -2.56865607      -1.56381874       0.00000000
Si       3.25102788       0.81239859      -0.18073575       0.00000000
Si       3.19047795      -1.23854499       0.98556113       0.00000000
Si       2.53394208       0.99170262      -2.38399059       0.00000000
Si       0.51370515       1.30140810       3.36775438       0.00000000
Si      -1.68549372      -3.23882667      -0.65623426       0.00000000
