10
Lattice="16.28999089631971 0.0 0.0 0.0 16.28999089631971 0.0 0.0 0.0 34.56409401068381" Properties=species:S:1:pos:R:3:initial_magmoms:R:1 pbc="T T T"
Si       1.92590154       1.36775727      -0.15536569       0.00000000
Si       0.58218831      -1.86957072      -1.34609939       0.00000000
Si      -1.12827798      -0.74539782       1.97796595       0.00000000
Si      -1.84303431       1.22500800      -0.99129877       0.00000000
Si      -0.04698036       1.07562870      -3.27864810       0.00000000
Si      -0.51370515      -1.30140810      -3.36775438       0.00000000
Si      -0.42399612      -3.63741039      -0.17012457       0.00000000
Si       1.38295584       3.26718756       1.09156926       0.00000000
Si       2.08384938       1.81936494      -2.48208354       0.00000000
Si      -1.49234319       1.23660648       3.20354028       0.00000000
