10
Lattice="16.28999089631971 0.0 0.0 0.0 16.28999089631971 0.0 0.0 0.0 34.56409401068381" Properties=species:S:1:pos:R:3:initial_magmoms:R:1 pbc="T T T"
Si      -1.33423245      -1.35913986       1.35315047       0.00000000
Si       1.36120869      -1.35399222      -1.36054719       0.00000000
Si      -1.35431802       1.36075257      -1.36082371       0.00000000
Si       1.37259540       1.37016819       1.39611367       0.00000000
Si      -2.55834450       0.09405846       2.74387214       0.00000000
Si       0.11797218      -2.55614535       2.76015183       0.00000000
Si      -2.71292031      -2.71412577      -0.00193559       0.00000000
Si      -2.71278999       2.71502172      -0.00241949       0.00000000
Si      -2.71202436       0.00203625      -2.71812187       0.00000000
Si       0.00247608      -2.71267596      -2.71805274       0.00000000
