10
Lattice="16.28999089631971 0.0 0.0 0.0 16.28999089631971 0.0 0.0 0.0 34.56409401068381" Properties=species:S:1:pos:R:3:initial_magmoms:R:1 pbc="T T T"
Si       0.94791510      -1.95129765       0.95286348       0.00000000
Si       1.37731950       1.29876912      -1.44509101       0.00000000
Si      -1.78031781       0.83758293       1.48580754       0.00000000
Si      -1.35425286      -1.37173203      -1.60450070       0.00000000
Si      -0.98894961      -3.32467497       1.07076167       0.00000000
Si      -1.11930219      -0.56596347       3.42596035       0.00000000
Si       2.85627231       2.53718379      -0.06639766       0.00000000
Si      -2.72753244       2.69946477       0.00269600       0.00000000
Si      -0.09962964       2.55458151      -2.96853887       0.00000000
Si       2.59612101      -0.15618852      -2.99100555       0.00000000
