10
Lattice="16.28999089631971 0.0 0.0 0.0 16.28999089631971 0.0 0.0 0.0 34.56409401068381" Properties=species:S:1:pos:R:3:initial_magmoms:R:1 pbc="T T T"
Si      -0.54294570       1.89943029       1.24693495       0.00000000
Si      -1.92590154      -1.36775727       0.15536569       0.00000000
Si       0.15794784       0.45160767      -2.32671785       0.00000000
Si       2.03846544      -0.93428037       0.82680815       0.00000000
Si      -1.31997870       0.89119332       3.27868266       0.00000000
Si      -1.34371323      -3.23732799      -1.19073370       0.00000000
Si      -1.97288190      -0.29212857      -3.12328241       0.00000000
Si       3.41216856       0.94493403       1.23469926       0.00000000
Si       2.53767249       0.79027677      -2.80124856       0.00000000
Si      -3.76893585      -0.14274927      -0.83593308       0.00000000
