10
Lattice="16.28999089631971 0.0 0.0 0.0 16.28999089631971 0.0 0.0 0.0 34.56409401068381" Properties=species:S:1:pos:R:3:initial_magmoms:R:1 pbc="T T T"
Si      -0.00447975       0.96102855      -2.15683524       0.00000000
Si      -0.33070329       1.98272106       1.25073700       0.00000000
Si      -1.74977406      -1.62202788      -0.07351787       0.00000000
Si       1.96361289      -1.35446463      -0.24319310       0.00000000
Si       1.01449233      -2.81131191      -1.88650931       0.00000000
Si       0.35958546      -1.02097575      -3.38240957       0.00000000
Si       3.36380355       0.14542083      -1.36797848       0.00000000
Si       2.09378628       1.98337266      -2.23705854       0.00000000
Si      -1.95077637       3.10987503      -0.04206453       0.00000000
Si      -0.57197448      -3.68988048      -0.27367865       0.00000000
