10
Lattice="16.28999089631971 0.0 0.0 0.0 16.28999089631971 0.0 0.0 0.0 34.56409401068381" Properties=species:S:1:pos:R:3:initial_magmoms:R:1 pbc="T T T"
Si      -1.36291914      -1.34762283       1.37718290       0.00000000
Si       1.35956340       1.35900954       1.38181449       0.00000000
Si      -1.23466797       1.45891611      -1.44297915       0.00000000
Si       1.18807857      -1.57542219      -1.41573226       0.00000000
Si       2.70977634       2.70045734       0.01209744       0.00000000
Si      -2.70923877       2.72234384      -0.00382970       0.00000000
Si       2.71191033      -2.72981304      -0.00542311       0.00000000
Si       2.84799699      -0.41495517      -2.55795004       0.00000000
Si      -2.72728809      -2.71928970       0.00375712       0.00000000
Si      -0.00312768      -2.70933651       2.73869789       0.00000000
