10
Lattice="16.28999089631971 0.0 0.0 0.0 16.28999089631971 0.0 0.0 0.0 34.56409401068381" Properties=species:S:1:pos:R:3:initial_magmoms:R:1 pbc="T T T"
Si      -1.35830907      -1.35689184      -1.35691796       0.00000000
Si       1.35747828      -1.35738054       1.35781663       0.00000000
Si      -1.35744570       1.35780231       1.35750555       0.00000000
Si       1.35757602       1.35736914      -1.35871529       0.00000000
Si       0.00034209       2.71379087       2.71393961       0.00000000
Si      -2.71355399       0.00211770       2.71466546       0.00000000
Si       0.00081450      -2.71381626       2.71514936       0.00000000
Si      -2.71538336      -2.71451673      -0.00010369       0.00000000
Si      -0.00097740      -2.71103067      -2.71888228       0.00000000
Si       2.71412577       0.00016290       2.71580608       0.00000000
