10
Lattice="16.28999089631971 0.0 0.0 0.0 16.28999089631971 0.0 0.0 0.0 34.56409401068381" Properties=species:S:1:pos:R:3:initial_magmoms:R:1 pbc="T T T"
Si       1.67195673      -1.33105427       0.90692777       0.00000000
Si      -1.60761449      -1.69279490      -0.10963737       0.00000000
Si       0.26182917       0.85186926      -2.20394612       0.00000000
Si      -0.16342128       1.42578225       1.95702010       0.00000000
Si      -1.92562896       1.97741052      -1.95180092       0.00000000
Si       3.37189968       0.30988467       0.70915191       0.00000000
Si      -0.80515931      -2.82959648       1.83960580       0.00000000
Si       1.10011257       3.29895306       1.10180024       0.00000000
Si      -2.48418332       2.13237729       1.97043097       0.00000000
Si       2.94246270       2.44491723      -0.25128110       0.00000000
