10
Lattice="16.28999089631971 0.0 0.0 0.0 16.28999089631971 0.0 0.0 0.0 34.56409401068381" Properties=species:S:1:pos:R:3:initial_magmoms:R:1 pbc="T T T"
Si      -0.90598464      -1.24799319       1.78513276       0.00000000
Si       1.40199885      -1.24942671      -1.54543064       0.00000000
Si      -1.31015583       1.43490206      -1.53848325       0.00000000
Si       0.88283655       2.00551796       1.26141732       0.00000000
Si      -2.45827503      -2.48275890       0.03902288       0.00000000
Si       2.81489571      -2.56251474      -0.17603503       0.00000000
Si      -2.68389153       2.79219464      -0.14907502       0.00000000
Si      -2.25702837       0.39627773       3.12853615       0.00000000
Si       0.05088996      -2.61728172      -2.92374378       0.00000000
Si      -2.66479965       0.10342582      -2.92415855       0.00000000
