10
Lattice="16.28999089631971 0.0 0.0 0.0 16.28999089631971 0.0 0.0 0.0 34.56409401068381" Properties=species:S:1:pos:R:3:initial_magmoms:R:1 pbc="T T T"
Si       1.09206531       1.63201365      -1.31557725       0.00000000
Si       1.44526509      -1.20438486       1.46510364       0.00000000
Si      -1.27974240       1.50097689       1.44944264       0.00000000
Si      -0.77069619      -2.11618503      -1.15582533       0.00000000
Si      -1.84700907       1.03840605      -3.09016795       0.00000000
Si       0.08366544      -2.55529012       2.83296114       0.00000000
Si       2.81571021      -2.57620323       0.07702958       0.00000000
Si       2.65118121       0.38957535      -2.74463051       0.00000000
Si      -2.47052511       2.93930244      -0.10122792       0.00000000
Si      -2.76239304      -2.69582233       0.13776564       0.00000000
