10
Lattice="16.28999089631971 0.0 0.0 0.0 16.28999089631971 0.0 0.0 0.0 34.56409401068381" Properties=species:S:1:pos:R:3:initial_magmoms:R:1 pbc="T T T"
Si       1.38482919      -1.93394228      -0.29718225       0.00000000
Si      -2.30762511      -0.58420827       0.48697379       0.00000000
Si       1.32196608       2.23080147       0.02101498       0.00000000
Si      -1.69899813      -0.25537833      -2.04000853       0.00000000
Si       1.68479325      -0.01961316       2.08687747       0.00000000
Si       2.18795877       1.40396994      -2.06679572       0.00000000
Si       0.22985190       0.69973695      -3.44604210       0.00000000
Si       3.42090000      -1.18322252       0.88193792       0.00000000
Si      -3.11583717       1.37893221       1.52002601       0.00000000
Si      -2.02204512      -1.92567348       2.56662736       0.00000000
