10
Lattice="16.28999089631971 0.0 0.0 0.0 16.28999089631971 0.0 0.0 0.0 34.56409401068381" Properties=species:S:1:pos:R:3:initial_magmoms:R:1 pbc="T T T"
Si      -0.66968190       2.19996450      -0.39344330       0.00000000
Si       0.86599269      -0.82683153      -2.08781070       0.00000000
Si       0.60838263       0.06714738       2.34552073       0.00000000
Si      -1.32196608      -2.23080147      -0.02101498       0.00000000
Si       0.36282717      -2.25041463       2.06586249       0.00000000
Si       1.40211288       3.27049443      -0.91819567       0.00000000
Si      -1.34180730       0.76750335       3.57261588       0.00000000
Si      -1.09211418      -1.53106452      -3.46705708       0.00000000
Si      -2.38523067       2.37030903      -2.10951696       0.00000000
Si       1.53044550       0.93413376      -3.56694737       0.00000000
