10
Lattice="16.28999089631971 0.0 0.0 0.0 16.28999089631971 0.0 0.0 0.0 34.56409401068381" Properties=species:S:1:pos:R:3:initial_magmoms:R:1 pbc="T T T"
Si      -0.50047767      -2.24090127      -0.26106275       0.00000000
Si       2.19036969       0.65068776       0.58689864       0.00000000
Si      -0.22783194       0.55522836      -2.29346718       0.00000000
Si      -1.36462959       1.06526826       1.66270667       0.00000000
Si      -0.86542254       2.78982540      -1.96535005       0.00000000
Si      -2.65222377      -1.90816173      -1.39092905       0.00000000
Si       0.00907353       2.94448266       2.07059777       0.00000000
Si       1.44971226      -2.94125724      -1.48815790       0.00000000
Si      -2.59167384       0.14278185      -2.55722592       0.00000000
Si      -0.56469285      -3.19347531       1.90980552       0.00000000
