10
Lattice="16.28999089631971 0.0 0.0 0.0 16.28999089631971 0.0 0.0 0.0 34.56409401068381" Properties=species:S:1:pos:R:3:initial_magmoms:R:1 pbc="T T T"
Si      -0.71708580       0.17930403      -2.20325484       0.00000000
Si      -0.06054993      -2.05094358       1.16629688       0.00000000
Si       2.36384190       0.41244651       0.26375875       0.00000000
Si      -0.65347335       2.30837445       1.06640659       0.00000000
Si      -2.78430309       1.56463821       0.26984203       0.00000000
Si       1.72625130       2.64704355       0.59187588       0.00000000
Si      -3.25102788      -0.81239859       0.18073575       0.00000000
Si       2.76332157      -0.95122197      -1.66989601       0.00000000
Si      -2.15513442      -1.38056121       2.20239074       0.00000000
Si      -2.65395051      -1.19407329      -2.08535665       0.00000000
