10
Lattice="16.28999089631971 0.0 0.0 0.0 16.28999089631971 0.0 0.0 0.0 34.56409401068381" Properties=species:S:1:pos:R:3:initial_magmoms:R:1 pbc="T T T"
Si      -1.38983022       1.74317661       0.80541297       0.00000000
Si      -1.07580789      -0.49370103      -2.06447992       0.00000000
Si       0.09402588      -1.91774025       1.46817984       0.00000000
Si       1.84409316       1.42514694      -0.68516442       0.00000000
Si      -0.97453296       1.72569744      -2.97572821       0.00000000
Si      -1.30714218       3.17951478      -1.10508383       0.00000000
Si       0.56423673      -1.95229134      -3.10406476       0.00000000
Si      -3.32516367      -1.25314083      -1.26960901       0.00000000
Si       0.12500946      -0.89508663       3.69279530       0.00000000
Si      -0.06413373       2.97994599       2.43262230       0.00000000
