10
Lattice="16.28999089631971 0.0 0.0 0.0 16.28999089631971 0.0 0.0 0.0 34.56409401068381" Properties=species:S:1:pos:R:3:initial_magmoms:R:1 pbc="T T T"
Si      -1.09206531      -1.63201365       1.31557725       0.00000000
Si       1.56941118       1.18913742       1.35123359       0.00000000
Si       1.55911590      -1.24243830      -1.42905327       0.00000000
Si      -1.65656268       2.02015548      -0.19950406       0.00000000
Si      -2.93907438      -0.59360760      -1.77459071       0.00000000
Si      -2.37180771      -0.13103676       2.76501988       0.00000000
Si       0.35176626       2.58212790       2.80313719       0.00000000
Si       2.48595174       2.92671027      -0.06263017       0.00000000
Si       2.90877498      -2.69734707      -0.01966698       0.00000000
Si      -3.56259042       1.30728879       1.21434933       0.00000000
