10
Lattice="16.28999089631971 0.0 0.0 0.0 16.28999089631971 0.0 0.0 0.0 34.56409401068381" Properties=species:S:1:pos:R:3:initial_magmoms:R:1 pbc="T T T"
Si      -1.35505107       1.35715248      -1.35798945       0.00000000
Si       1.35847197      -1.35850455      -1.35743642       0.00000000
Si       1.35553977       1.36410831       1.35591560       0.00000000
Si      -1.36241415      -1.34322453       1.37703427       0.00000000
Si       2.65781124      -0.06002865       2.69358135       0.00000000
Si       0.00636939      -2.65352697       2.75413768       0.00000000
Si      -2.71344159       2.71218726       0.00152082       0.00000000
Si      -2.71309950      -0.00027693      -2.71532218       0.00000000
Si       0.00166158       2.71397916      -2.71514936       0.00000000
Si      -2.71336014      -2.71682991       0.00345641       0.00000000
