10
Lattice="16.28999089631971 0.0 0.0 0.0 16.28999089631971 0.0 0.0 0.0 34.56409401068381" Properties=species:S:1:pos:R:3:initial_magmoms:R:1 pbc="T T T"
Si       1.50726483      -1.10490183       1.42729050       0.00000000
Si      -1.47895281      -1.23841467      -1.37869335       0.00000000
Si       1.15282701       1.41680646      -1.55241259       0.00000000
Si      -0.81956619       1.47631383       1.71814751       0.00000000
Si       3.22545258       0.65829519       1.24133557       0.00000000
Si       2.48951925      -2.74875831      -0.09864598       0.00000000
Si       2.66321952       2.63114451      -0.11513306       0.00000000
Si      -2.56805334       2.73132801       0.40875520       0.00000000
Si      -2.85627231      -2.53718379       0.06639766       0.00000000
Si       2.45780262       0.01396053      -2.94572656       0.00000000
