10
Lattice="16.28999089631971 0.0 0.0 0.0 16.28999089631971 0.0 0.0 0.0 34.56409401068381" Properties=species:S:1:pos:R:3:initial_magmoms:R:1 pbc="T T T"
Si       0.63759060      -2.23459704      -0.32811713       0.00000000
Si       0.77367726       1.22077260       1.89826110       0.00000000
Si      -2.37972465      -0.33866910       0.47453071       0.00000000
Si       0.97228494       0.91584009      -2.38710136       0.00000000
Si      -1.72625130      -2.64704355      -0.59187588       0.00000000
Si       0.86542254      -2.78982540       1.96535005       0.00000000
Si      -2.20345056       3.06642960       0.22148684       0.00000000
Si      -0.66178125       3.10878360       2.06575880       0.00000000
Si      -2.53767249      -0.79027677       2.80124856       0.00000000
Si       2.85211836       2.24099901       1.49441400       0.00000000
