10
Lattice="16.28999089631971 0.0 0.0 0.0 16.28999089631971 0.0 0.0 0.0 34.56409401068381" Properties=species:S:1:pos:R:3:initial_magmoms:R:1 pbc="T T T"
Si      -0.88242930       1.49907096       1.57522490       0.00000000
Si      -1.37370312      -1.87921440      -0.40789110       0.00000000
Si       2.28040452      -0.65655216       0.22871074       0.00000000
Si      -0.10081881       1.06611534      -2.13768672       0.00000000
Si       2.18129616      -2.29379490      -1.48369913       0.00000000
Si      -2.35967166       2.68017741       0.23469033       0.00000000
Si      -0.00907353      -2.94448266      -2.07059777       0.00000000
Si      -3.41216856      -0.94493403      -1.23469926       0.00000000
Si       1.97762229       2.08634175      -2.54153382       0.00000000
Si       0.80314587       2.39210505       2.91309804       0.00000000
