10
Lattice="16.28999089631971 0.0 0.0 0.0 16.28999089631971 0.0 0.0 0.0 34.56409401068381" Properties=species:S:1:pos:R:3:initial_magmoms:R:1 pbc="T T T"
Si       1.35241209       1.29611385      -1.40797058       0.00000000
Si       1.46344473      -1.21598334       1.42637109       0.00000000
Si      -1.26777722       1.49146353       1.41302243       0.00000000
Si      -0.85663246      -1.78947279      -1.51674384       0.00000000
Si       0.61480089       0.35839629      -3.52778765       0.00000000
Si      -2.58565373      -2.57036652       0.01342125       0.00000000
Si       0.09753800      -2.57768073       2.79884290       0.00000000
Si       2.69742852       2.69195508       0.06197691       0.00000000
Si       2.87511984      -2.50986546      -0.04876996       0.00000000
Si      -2.62206188       0.14349861       2.79835900       0.00000000
