10
Lattice="16.28999089631971 0.0 0.0 0.0 16.28999089631971 0.0 0.0 0.0 34.56409401068381" Properties=species:S:1:pos:R:3:initial_magmoms:R:1 pbc="T T T"
Si       1.35692442      -1.35982404       1.36548986       0.00000000
Si      -1.35951453       1.35866745       1.36618114       0.00000000
Si       1.37024964       1.34565174      -1.36933339       0.00000000
Si      -1.35671265      -1.37811771      -1.37880396       0.00000000
Si      -2.70905958       2.71070487       0.00843364       0.00000000
Si      -2.71156824      -2.71632492       0.00767323       0.00000000
Si       2.71611315       2.71251306       0.00542657       0.00000000
Si       2.71476108      -2.71397916       0.00819169       0.00000000
Si       0.02083491       2.64745080      -2.78790682       0.00000000
Si       2.71461447       0.00001629       2.72275346       0.00000000
