10
Lattice="16.28999089631971 0.0 0.0 0.0 16.28999089631971 0.0 0.0 0.0 34.56409401068381" Properties=species:S:1:pos:R:3:initial_magmoms:R:1 pbc="T T T"
Si       1.35728683       1.35734796       1.35857704       0.00000000
Si      -1.35787077      -1.35760860       1.35868073       0.00000000
Si       1.35873175      -1.35949824      -1.35854247       0.00000000
Si      -1.36086813       1.36168110      -1.35902637       0.00000000
Si       2.71437578      -2.71510317       0.00245405       0.00000000
Si       2.71403369       0.00024435       2.71611715       0.00000000
Si      -0.00028329       2.71472850       2.71611715       0.00000000
Si      -0.00043947      -2.71515204       2.71580608       0.00000000
Si      -2.71533276       0.00022806       2.71566782       0.00000000
Si      -2.71583775      -2.71520091       0.00217754       0.00000000
