10
Lattice="16.28999089631971 0.0 0.0 0.0 16.28999089631971 0.0 0.0 0.0 34.56409401068381" Properties=species:S:1:pos:R:3:initial_magmoms:R:1 pbc="T T T"
Si       1.35009891       1.34887553      -1.36733558       0.00000000
Si       1.35563751      -1.35746204       1.35843878       0.00000000
Si      -1.36008468       1.35711827       1.35964853       0.00000000
Si      -1.35360126      -1.36746095      -1.36622608       0.00000000
Si       2.71448482       2.71282094      -0.00107149       0.00000000
Si       2.71151678      -2.71639890       0.00006913       0.00000000
Si       2.71293401       0.00036978       2.71597890       0.00000000
Si      -0.00211770       2.71471058       2.71615172       0.00000000
Si      -0.00192222      -2.71509570       2.71587520       0.00000000
Si      -2.71666701       0.00007656       2.71615172       0.00000000
