10
Lattice="16.28999089631971 0.0 0.0 0.0 16.28999089631971 0.0 0.0 0.0 34.56409401068381" Properties=species:S:1:pos:R:3:initial_magmoms:R:1 pbc="T T T"
Si       1.35651717       1.35647002       1.35798945       0.00000000
Si      -1.35711990       1.35724380      -1.35688340       0.00000000
Si       1.35762489      -1.35792846      -1.35715991       0.00000000
Si      -1.35879777      -1.35898731       1.35774750       0.00000000
Si      -0.00053757       2.71428551      -2.71338659       0.00000000
Si       2.71486071       2.71433438       0.00024195       0.00000000
Si       0.00162900       2.71402487       2.71528761       0.00000000
Si       0.00076563      -2.71545561      -2.71397418       0.00000000
Si       2.71518462      -0.00029481      -2.71459633       0.00000000
Si      -2.71541268       2.71487195       0.00010369       0.00000000
