10
Lattice="16.28999089631971 0.0 0.0 0.0 16.28999089631971 0.0 0.0 0.0 34.56409401068381" Properties=species:S:1:pos:R:3:initial_magmoms:R:1 pbc="T T T"
Si      -1.35479043       1.34780202       1.34993601       0.00000000
Si       1.35153243       1.35980775      -1.36089283       0.00000000
Si      -1.36058967      -1.35759231      -1.36058176       0.00000000
Si       1.33286409      -1.37886705       1.41232423       0.00000000
Si      -2.65412644      -0.03404610       2.74950609       0.00000000
Si      -2.71922943       2.70966231      -0.01157898       0.00000000
Si       2.71028133       0.00276930      -2.72081787       0.00000000
Si       2.71379997       2.71829601       0.01271959       0.00000000
Si      -0.00446346      -2.71479366      -2.72251151       0.00000000
Si      -0.00373041       2.71707426      -2.72150916       0.00000000
