10
Lattice="16.28999089631971 0.0 0.0 0.0 16.28999089631971 0.0 0.0 0.0 34.56409401068381" Properties=species:S:1:pos:R:3:initial_magmoms:R:1 pbc="T T T"
Si       1.31880582      -1.37125962       1.41915756       0.00000000
Si      -1.39193163       1.36052451       1.40273961       0.00000000
Si      -1.54755000      -1.22575734      -1.38433909       0.00000000
Si       1.72902127       0.78089373      -1.53016509       0.00000000
Si       2.58565373       2.57036652      -0.01342125       0.00000000
Si       2.69983522      -2.66636512      -0.02117743       0.00000000
Si      -2.73268008      -2.73662715       0.02793472       0.00000000
Si       2.68319173      -0.00731421       2.78542166       0.00000000
Si      -0.03640815       2.71386513       2.78493776       0.00000000
Si      -0.03129309      -2.72013515       2.78649314       0.00000000
