10
Lattice="16.28999089631971 0.0 0.0 0.0 16.28999089631971 0.0 0.0 0.0 34.56409401068381" Properties=species:S:1:pos:R:3:initial_magmoms:R:1 pbc="T T T"
Si      -1.34618721      -1.36244673       1.34506247       0.00000000
Si       1.35903023       1.35171162       1.35543170       0.00000000
Si       1.35676429      -1.35615879      -1.35449847       0.00000000
Si      -1.35622185       1.35791811      -1.35487868       0.00000000
Si      -0.02386275       2.68912062       2.66250821       0.00000000
Si      -2.71378158       0.00107514      -2.71200402       0.00000000
Si       0.00111171      -2.71430496      -2.71186577       0.00000000
Si      -2.71212000      -2.71461447       0.00317990       0.00000000
Si      -2.71117518       2.71562445       0.00190103       0.00000000
Si       0.00126789       2.71557558      -2.71155469       0.00000000
