10
Lattice="16.28999089631971 0.0 0.0 0.0 16.28999089631971 0.0 0.0 0.0 34.56409401068381" Properties=species:S:1:pos:R:3:initial_magmoms:R:1 pbc="T T T"
Si       1.34210052       1.35721764       1.34796586       0.00000000
Si       1.35495333      -1.35770634      -1.35677970       0.00000000
Si      -1.36099692       1.35738054      -1.35619211       0.00000000
Si      -1.37055915      -1.35536058       1.37005232       0.00000000
Si       2.68731243      -0.02650383       2.66060719       0.00000000
Si      -0.06165765       2.65585644       2.69482566       0.00000000
Si       2.71244307      -0.00004887      -2.71345572       0.00000000
Si       2.71117518      -2.71562445      -0.00190103       0.00000000
Si       2.71335062       2.71467963       0.00356010       0.00000000
Si      -0.00260640      -2.71454931      -2.71390505       0.00000000
