10
Lattice="16.28999089631971 0.0 0.0 0.0 16.28999089631971 0.0 0.0 0.0 34.56409401068381" Properties=species:S:1:pos:R:3:initial_magmoms:R:1 pbc="T T T"
Si      -0.32739642      -1.53673344       1.76314998       0.00000000
Si       0.32604435       1.95672222       1.34001611       0.00000000
Si       1.90866902      -0.99836523      -1.08610813       0.00000000
Si      -1.95170490      -0.01202202      -1.42127634       0.00000000
Si      -2.19726036      -2.32958403      -1.70093458       0.00000000
Si      -1.85810256      -0.39252384       3.15062262       0.00000000
Si       1.99023957       3.21940899       0.10555880       0.00000000
Si       1.65566673      -1.46372166       3.08515819       0.00000000
Si      -1.21104747       3.57992298       0.65378020       0.00000000
Si      -0.39343608       1.37497374       3.59788225       0.00000000
