10
Lattice="16.28999089631971 0.0 0.0 0.0 16.28999089631971 0.0 0.0 0.0 34.56409401068381" Properties=species:S:1:pos:R:3:initial_magmoms:R:1 pbc="T T T"
Si       1.46466648       1.76749758       0.44725963       0.00000000
Si       1.53070614      -1.14420960      -1.38747264       0.00000000
Si      -0.19170072      -0.82872117       2.23360213       0.00000000
Si      -2.10800745       0.12828375      -1.17393555       0.00000000
Si       3.51376929      -1.07119782      -0.06546443       0.00000000
Si       1.85810256       0.39252384      -3.15062262       0.00000000
Si       2.18414691       2.34924606      -1.81060651       0.00000000
Si      -0.98697852      -2.99151678       1.92746778       0.00000000
Si      -2.69501760      -2.11722759      -1.44153091       0.00000000
Si       3.42094887       0.84988188       1.29777876       0.00000000
