10
Lattice="16.28999089631971 0.0 0.0 0.0 16.28999089631971 0.0 0.0 0.0 34.56409401068381" Properties=species:S:1:pos:R:3:initial_magmoms:R:1 pbc="T T T"
Si      -1.35663609      -1.36304946       1.35083468       0.00000000
Si       1.35886293      -1.35563751      -1.35909550       0.00000000
Si      -1.35713293       1.35922131      -1.35899181       0.00000000
Si       1.37868786       1.35498591       1.35508606       0.00000000
Si      -2.73952907      -0.02564046       2.65791119       0.00000000
Si       2.71412577      -2.71290402       0.00152082       0.00000000
Si       2.71292031       2.71412577       0.00193559       0.00000000
Si      -2.71349088       2.71554300       0.00086410       0.00000000
Si      -0.00008145      -2.71366965      -2.71615172       0.00000000
Si      -2.71566632      -2.71476108      -0.00459703       0.00000000
