10
Lattice="16.28999089631971 0.0 0.0 0.0 16.28999089631971 0.0 0.0 0.0 34.56409401068381" Properties=species:S:1:pos:R:3:initial_magmoms:R:1 pbc="T T T"
Si      -1.35690813      -1.35703845       1.35636494       0.00000000
Si       1.35567009      -1.35332433      -1.36134217       0.00000000
Si       1.35785295       1.35848826       1.35598473       0.00000000
Si      -1.35622395       1.35852084      -1.35857704       0.00000000
Si      -2.71248048      -0.01347183      -2.70781485       0.00000000
Si      -2.71406061       2.71267596      -0.00127887       0.00000000
Si      -2.71406061       0.00016290       2.71311008       0.00000000
Si      -2.71389771      -2.71417464      -0.00024195       0.00000000
Si       0.00120546      -2.71477737       2.71335202       0.00000000
Si       0.00099369       2.71524978       2.71359397       0.00000000
