10
Lattice="16.28999089631971 0.0 0.0 0.0 16.28999089631971 0.0 0.0 0.0 34.56409401068381" Properties=species:S:1:pos:R:3:initial_magmoms:R:1 pbc="T T T"
Si      -1.35685926      -1.35752715      -1.35681427       0.00000000
Si       1.35755973       1.35763365      -1.35743642       0.00000000
Si       1.35753505      -1.35752715       1.35760924       0.00000000
Si      -1.35762489       1.35792846       1.35715991       0.00000000
Si      -0.00286704      -2.71238274      -2.71228054       0.00000000
Si       2.71419486      -2.71448415      -0.00027651       0.00000000
Si       0.00000000      -2.71422351       2.71487285       0.00000000
Si       2.71343900      -0.00130320      -2.71580608       0.00000000
Si      -0.00110772       2.71439848       2.71514936       0.00000000
Si      -2.71474479       2.71517226       0.00027651       0.00000000
