10
Lattice="16.28999089631971 0.0 0.0 0.0 16.28999089631971 0.0 0.0 0.0 34.56409401068381" Properties=species:S:1:pos:R:3:initial_magmoms:R:1 pbc="T T T"
Si      -1.32895449       1.37730294       1.37070904       0.00000000
Si       1.35163066       1.36114112      -1.37772556       0.00000000
Si      -1.36606311      -1.35368271      -1.37630843       0.00000000
Si       1.26420174      -1.41507972       1.53772284       0.00000000
Si      -2.52227844      -0.08685828       2.80867985       0.00000000
Si       2.71398146       2.69527891      -0.00701652       0.00000000
Si       2.71001484      -2.70492192       0.00805344       0.00000000
Si      -2.72769534      -2.70404226      -0.02191365       0.00000000
Si       2.70730908       0.00591327      -2.73574957       0.00000000
Si      -0.00871515      -2.71046052      -2.73536936       0.00000000
