10
Lattice="16.28999089631971 0.0 0.0 0.0 16.28999089631971 0.0 0.0 0.0 34.56409401068381" Properties=species:S:1:pos:R:3:initial_magmoms:R:1 pbc="T T T"
Si      -2.07576954       0.76862151       0.86952940       0.00000000
Si       1.56627928       1.71732994      -0.59965280       0.00000000
Si       1.00161738      -1.35138582       1.72488751       0.00000000
Si      -0.70529184      -0.69467076      -2.24822275       0.00000000
Si      -2.51701677      -1.94898447       0.56242725       0.00000000
Si      -0.80049060      -2.82976848       1.90320377       0.00000000
Si      -1.44673119       3.08525174       1.13041933       0.00000000
Si       3.01841387      -2.16753111       0.85698263       0.00000000
Si       3.42023930       0.62516689      -1.62627610       0.00000000
Si      -2.24236737       0.25375179       3.16666037       0.00000000
