10
Lattice="16.28999089631971 0.0 0.0 0.0 16.28999089631971 0.0 0.0 0.0 34.56409401068381" Properties=species:S:1:pos:R:3:initial_magmoms:R:1 pbc="T T T"
Si      -0.82768676       0.30372705      -2.09582958       0.00000000
Si       0.81633588      -2.09911311       0.41912444       0.00000000
Si      -1.19541233       1.04373288       1.71849315       0.00000000
Si       1.89461985       1.35971001      -0.22051904       0.00000000
Si      -1.27698287      -3.17404134       0.52682622       0.00000000
Si       0.94427754       1.38163635      -3.15729350       0.00000000
Si       0.51311382       2.10005793       2.90957250       0.00000000
Si      -2.64904300       1.87045038      -1.68081827       0.00000000
Si       1.55381676      -1.98288396       2.67861509       0.00000000
Si      -2.90898253       2.27903616       0.64130256       0.00000000
