10
Lattice="16.28999089631971 0.0 0.0 0.0 16.28999089631971 0.0 0.0 0.0 34.56409401068381" Properties=species:S:1:pos:R:3:initial_magmoms:R:1 pbc="T T T"
Si       1.25190279       1.57346739      -1.18692785       0.00000000
Si      -1.30653438       1.37068947       1.39424375       0.00000000
Si      -2.00051693      -0.74945403      -1.01979343       0.00000000
Si       1.40056533      -1.36055709       1.37415163       0.00000000
Si       2.41927677      -0.07457562      -2.32662250       0.00000000
Si      -2.61052856       2.75545350      -0.03380370       0.00000000
Si      -2.66653358       0.00972513       2.75435198       0.00000000
Si       0.05178102      -2.70443322       2.75155228       0.00000000
Si       0.04977247       2.72080467       2.75082644       0.00000000
Si      -2.74438349      -2.75805990      -0.10372345       0.00000000
