10
Lattice="16.28999089631971 0.0 0.0 0.0 16.28999089631971 0.0 0.0 0.0 34.56409401068381" Properties=species:S:1:pos:R:3:initial_magmoms:R:1 pbc="T T T"
Si       1.05456084      -1.54394991       1.33147877       0.00000000
Si      -1.56528559       0.79938288       1.56768992       0.00000000
Si      -1.36814401      -1.45399653      -1.25343301       0.00000000
Si       1.52596086       1.37982816      -1.16553647       0.00000000
Si       1.27079430       0.52984854       3.06556034       0.00000000
Si      -0.71740345      -2.62185921       2.39294269       0.00000000
Si       0.01832462       2.65162104      -2.52691320       0.00000000
Si      -2.71335592      -0.07027506      -2.56607434       0.00000000
Si      -2.85657760       2.39331051       0.36876453       0.00000000
Si       2.75007291      -0.07337016      -2.55625813       0.00000000
