10
Lattice="16.28999089631971 0.0 0.0 0.0 16.28999089631971 0.0 0.0 0.0 34.56409401068381" Properties=species:S:1:pos:R:3:initial_magmoms:R:1 pbc="T T T"
Si       0.73410885      -2.09572479       1.20269289       0.00000000
Si      -0.21623346      -2.07379845      -1.73408157       0.00000000
Si       2.50541829       0.40909077      -1.12450886       0.00000000
Si      -2.02492356       2.14239564       1.16214918       0.00000000
Si      -2.83607990       0.26953434      -1.49787042       0.00000000
Si      -1.27079430      -0.52984854      -3.06556034       0.00000000
Si       1.86103476       1.41924996       2.41330096       0.00000000
Si       3.16643391      -0.99445563       0.81564395       0.00000000
Si       1.37037996      -0.84507633       3.10299327       0.00000000
Si      -0.04758309       2.87691174       2.30342164       0.00000000
