10
Lattice="16.28999089631971 0.0 0.0 0.0 16.28999089631971 0.0 0.0 0.0 34.56409401068381" Properties=species:S:1:pos:R:3:initial_magmoms:R:1 pbc="T T T"
Si      -1.70852615      -1.05632505      -1.19107935       0.00000000
Si      -0.99014530       1.41545439       1.59689660       0.00000000
Si       0.58683096      -2.03719482       1.05883705       0.00000000
Si       2.01777714       0.51030054      -1.22979115       0.00000000
Si       1.38150603      -0.74034792      -3.13009154       0.00000000
Si       2.73253347      -1.46010528       1.73947357       0.00000000
Si      -0.51311382      -2.10005793      -2.90957250       0.00000000
Si       0.84885561       2.34626499       2.73851470       0.00000000
Si      -0.72783557      -1.92352320       3.09829255       0.00000000
Si      -2.91770909       2.36053503       0.56280746       0.00000000
