10
Lattice="16.28999089631971 0.0 0.0 0.0 16.28999089631971 0.0 0.0 0.0 34.56409401068381" Properties=species:S:1:pos:R:3:initial_magmoms:R:1 pbc="T T T"
Si       0.99014530      -1.41545439      -1.59689660       0.00000000
Si       1.83900091       0.93081060       1.14161810       0.00000000
Si      -0.86991369      -1.20226716       1.84427196       0.00000000
Si      -1.92756379       0.94508064      -1.03408914       0.00000000
Si       0.26230973      -3.33897759       1.50139595       0.00000000
Si       3.35861356      -0.89355537       1.36815130       0.00000000
Si      -3.23517838      -1.00260063       1.69924094       0.00000000
Si      -0.71838085      -2.47177944      -2.78797595       0.00000000
Si       1.57697626      -3.45264921      -0.53805955       0.00000000
Si      -3.82055953      -0.47402271      -0.52734468       0.00000000
