10
Lattice="16.28999089631971 0.0 0.0 0.0 16.28999089631971 0.0 0.0 0.0 34.56409401068381" Properties=species:S:1:pos:R:3:initial_magmoms:R:1 pbc="T T T"
Si       0.78959259       0.38867940      -2.17062632       0.00000000
Si       0.02101410       2.30500242       0.59609270       0.00000000
Si      -2.00242219      -1.30453578      -0.04811325       0.00000000
Si       1.88582814      -0.81063927       1.44253327       0.00000000
Si      -1.34278470      -2.89507509       1.59371670       0.00000000
Si       0.50648868       2.23423866       2.84403894       0.00000000
Si       2.73114882       1.69728768      -1.91626901       0.00000000
Si      -2.02696144       3.17335716      -0.22715535       0.00000000
Si       0.99808830      -2.93237919       2.18358786       0.00000000
Si      -0.83048049       1.51583337      -3.46342785       0.00000000
