10
Lattice="16.28999089631971 0.0 0.0 0.0 16.28999089631971 0.0 0.0 0.0 34.56409401068381" Properties=species:S:1:pos:R:3:initial_magmoms:R:1 pbc="T T T"
Si       1.35630684       1.35011520       1.35658269       0.00000000
Si       1.30653438      -1.37068947      -1.39424375       0.00000000
Si      -1.35999920      -1.36096434       1.36010823       0.00000000
Si      -1.30399418       1.38476403      -1.42804745       0.00000000
Si      -0.69398255      -2.12014350      -2.41403717       0.00000000
Si      -2.26666802      -0.40198833      -2.75445363       0.00000000
Si       2.55843717       0.20277792      -2.58117160       0.00000000
Si      -2.70881120       2.69905314      -0.00971252       0.00000000
Si       0.00042757       2.70905205       2.71495234       0.00000000
Si       2.71413699      -0.00544086       2.71529798       0.00000000
