10
Lattice="16.28999089631971 0.0 0.0 0.0 16.28999089631971 0.0 0.0 0.0 34.56409401068381" Properties=species:S:1:pos:R:3:initial_magmoms:R:1 pbc="T T T"
Si      -1.35707429      -1.35762489       1.35681427       0.00000000
Si      -1.35783014       1.35555606      -1.35871529       0.00000000
Si       1.35830907       1.35689184       1.35691796       0.00000000
Si       1.35733167      -1.35413883      -1.36196432       0.00000000
Si      -2.71370942       2.71449291      -0.00034564       0.00000000
Si      -2.71373409      -0.00066789       2.71470002       0.00000000
Si       0.00086337       2.71469415       2.71442351       0.00000000
Si      -2.71413699       0.00544086      -2.71529798       0.00000000
Si       2.71588509       2.71426098      -0.00179733       0.00000000
Si       0.00141723      -2.71564074       2.71476915       0.00000000
