10
Lattice="16.28999089631971 0.0 0.0 0.0 16.28999089631971 0.0 0.0 0.0 34.56409401068381" Properties=species:S:1:pos:R:3:initial_magmoms:R:1 pbc="T T T"
Si       1.34648253       1.36787191      -1.39220792       0.00000000
Si      -1.36793646      -1.35262386      -1.39234618       0.00000000
Si      -1.45977948       1.22771214       1.45324814       0.00000000
Si       1.55300715      -1.21831281       1.57097351       0.00000000
Si       2.70112635       2.69934815      -0.00653262       0.00000000
Si       2.71744893      -2.69747739       0.00618698       0.00000000
Si      -2.71716060       2.69840659      -0.02250124       0.00000000
Si      -2.72112721      -2.70179424      -0.00743128       0.00000000
Si       2.70384678       0.00708615      -2.75009368       0.00000000
Si      -0.07734492       2.61244100       2.83712611       0.00000000
