10
Lattice="16.28999089631971 0.0 0.0 0.0 16.28999089631971 0.0 0.0 0.0 34.56409401068381" Properties=species:S:1:pos:R:3:initial_magmoms:R:1 pbc="T T T"
Si      -1.35567841       1.35522785       1.35802401       0.00000000
Si       1.35610829       1.35568461      -1.35715991       0.00000000
Si      -1.35848917      -1.35967743      -1.35688340       0.00000000
Si       1.35589652      -1.36166481       1.35888812       0.00000000
Si       0.00667238       2.68936564       2.72873305       0.00000000
Si       2.71389608       2.71167317      -0.00072585       0.00000000
Si      -0.00116799       2.71331520      -2.71438895       0.00000000
Si       2.71355399      -0.00211770      -2.71466546       0.00000000
Si      -2.71713195       2.71224820       0.00065672       0.00000000
Si       2.71436849      -2.71593396       0.00048390       0.00000000
