10
Lattice="16.28999089631971 0.0 0.0 0.0 16.28999089631971 0.0 0.0 0.0 34.56409401068381" Properties=species:S:1:pos:R:3:initial_magmoms:R:1 pbc="T T T"
Si       1.35847197      -1.35426915      -1.35840422       0.00000000
Si      -1.35589652       1.36166481      -1.35888812       0.00000000
Si      -1.35319075      -1.34917038       1.38491489       0.00000000
Si       1.36793646       1.35262386       1.39234618       0.00000000
Si       0.15444549      -2.62096326       2.74629162       0.00000000
Si      -2.71362120      -2.71360449       0.00134800       0.00000000
Si       2.71278999      -2.71502172       0.00241949       0.00000000
Si      -2.71157494       2.71689266      -0.00086410       0.00000000
Si       0.00076563      -2.71298547      -2.71570238       0.00000000
Si      -2.71438569       0.00198738      -2.71577151       0.00000000
