10
Lattice="16.28999089631971 0.0 0.0 0.0 16.28999089631971 0.0 0.0 0.0 34.56409401068381" Properties=species:S:1:pos:R:3:initial_magmoms:R:1 pbc="T T T"
Si      -0.97409313       0.30553524       2.18728622       0.00000000
Si       0.64107666      -2.12408568      -1.15316251       0.00000000
Si      -2.39919935       0.45980154      -1.16422303       0.00000000
Si       2.30578434       2.08923227       0.52990242       0.00000000
Si      -0.90824895       1.65622059      -2.67733622       0.00000000
Si       0.47418561       3.04094945      -1.29345825       0.00000000
Si       2.10453768      -0.78980436      -2.55961085       0.00000000
Si      -3.17098859      -0.10523340       1.55120284       0.00000000
Si       3.65682807       0.44496135      -0.81350097       0.00000000
Si      -0.96471009      -1.51814655       3.75787953       0.00000000
