10
Lattice="10.86 0.0 0.0 0.0 10.86 0.0 0.0 0.0 10.86" Properties=species:S:1:pos:R:3:initial_magmoms:R:1 pbc="T T T"
Si      -1.27647354      -1.34783460       1.32480054       0.00000000
Si       1.43852646       1.36716540       1.32480054       0.00000000
Si      -1.39442400       1.34351232      -1.42633068       0.00000000
Si       1.43852646      -1.34783460      -1.39019946       0.00000000
Si       0.07472766       2.58241026      -2.66619516       0.00000000
Si      -2.63397354       0.00966540       2.68230054       0.00000000
Si      -2.63397354      -2.70533460      -0.03269946       0.00000000
Si      -2.73282126       2.63104134      -0.07446702       0.00000000
Si       0.08102646      -2.70533460       2.68230054       0.00000000
Si       0.08102646       2.72466540       2.68230054       0.00000000
