10
Lattice="10.86 0.0 0.0 0.0 10.86 0.0 0.0 0.0 10.86" Properties=species:S:1:pos:R:3:initial_magmoms:R:1 pbc="T T T"
Si       1.36012812      -1.34145978      -1.22017530       0.00000000
Si      -1.35487188      -1.34145978       1.49482470       0.00000000
Si       1.36012812       1.37354022       1.49482470       0.00000000
Si      -1.27627806       1.66449048      -1.42309440       0.00000000
Si       2.60289222      -0.00178104      -2.43424728       0.00000000
Si      -2.78234286       0.11602824      -2.34101418       0.00000000
Si       0.00262812      -2.69895978      -2.57767530       0.00000000
Si      -2.71237188      -2.69895978       0.13732470       0.00000000
Si       2.71762812      -2.69895978       0.13732470       0.00000000
Si       2.60307684       2.85823254       0.04744734       0.00000000
