10
Lattice="10.86 0.0 0.0 0.0 10.86 0.0 0.0 0.0 10.86" Properties=species:S:1:pos:R:3:initial_magmoms:R:1 pbc="T T T"
Si       1.17289086       1.24123284       1.26323520       0.00000000
Si       1.17289086      -1.47376716      -1.45176480       0.00000000
Si      -1.54210914       1.24123284      -1.45176480       0.00000000
Si      -1.37314926      -2.44153434       1.73029122       0.00000000
Si       2.60055732      -0.19950906       2.49966792       0.00000000
Si       2.53039086       2.59873284      -0.09426480       0.00000000
Si      -2.57540556      -0.49606308       2.57757756       0.00000000
Si      -0.18460914       2.59873284       2.62073520       0.00000000
Si       2.53039086      -0.11626716      -2.80926480       0.00000000
Si      -0.18460914       2.59873284      -2.80926480       0.00000000
