10
Lattice="10.86 0.0 0.0 0.0 10.86 0.0 0.0 0.0 10.86" Properties=species:S:1:pos:R:3:initial_magmoms:R:1 pbc="T T T"
Si       1.20231060      -1.03399146      -1.42414782       0.00000000
Si      -1.51268940      -1.03399146       1.29085218       0.00000000
Si      -1.97649828       1.08690138      -0.78459156       0.00000000
Si       1.20231060       1.68100854       1.29085218       0.00000000
Si       2.55981060      -2.39149146      -0.06664782       0.00000000
Si      -0.15518940      -2.39149146       2.64835218       0.00000000
Si      -0.15518940      -2.39149146      -2.78164782       0.00000000
Si       2.55981060       0.32350854       2.64835218       0.00000000
Si      -2.87018940      -2.39149146      -0.06664782       0.00000000
Si      -2.87018940       0.32350854       2.64835218       0.00000000
