10
Lattice="10.86 0.0 0.0 0.0 10.86 0.0 0.0 0.0 10.86" Properties=species:S:1:pos:R:3:initial_magmoms:R:1 pbc="T T T"
Si      -1.20024720       1.44126318      -1.18874646       0.00000000
Si      -1.20024720      -1.27373682       1.52625354       0.00000000
Si       1.51475280       1.44126318       1.52625354       0.00000000
Si       2.72899854      -2.34592290      -0.03209130       0.00000000
Si      -2.59720158      -2.57482998       0.10406052       0.00000000
Si      -2.76568362       0.40565358      -2.42141076       0.00000000
Si       0.15725280       2.79876318      -2.54624646       0.00000000
Si      -2.55774720       2.79876318       0.16875354       0.00000000
Si       2.81312010       0.24736908      -2.59332456       0.00000000
Si      -2.55774720       0.08376318       2.88375354       0.00000000
