10
Lattice="16.28999089631971 0.0 0.0 0.0 16.28999089631971 0.0 0.0 0.0 34.49183129400761" Properties=species:S:1:pos:R:3:initial_magmoms:R:1 pbc="T T T"
Si      -1.35343836       1.74552141       0.57446177       0.00000000
Si       0.72720189      -0.28416276      -2.20920303       0.00000000
Si       1.30293936      -0.06674013       1.96048229       0.00000000
Si      -1.51640352      -1.81294668      -0.02524803       0.00000000
Si       0.26511975      -3.34321299      -0.33839955       0.00000000
Si      -0.51917859      -0.31770387       3.47001813       0.00000000
Si      -2.44194593       0.81684806       2.42243165       0.00000000
Si       0.50660271      -2.61835686      -2.53387482       0.00000000
Si      -0.06123411       3.65722622       0.55086935       0.00000000
Si      -3.17297532       1.69776565      -0.89285604       0.00000000
