10
Lattice="16.28999089631971 0.0 0.0 0.0 16.28999089631971 0.0 0.0 0.0 34.49183129400761" Properties=species:S:1:pos:R:3:initial_magmoms:R:1 pbc="T T T"
Si       2.24691228       0.43996032      -0.32108464       0.00000000
Si      -0.91157211       0.86540625      -2.00259684       0.00000000
Si      -0.25054020       1.30357467       1.97241647       0.00000000
Si      -0.41425470      -2.37738608       0.00258689       0.00000000
Si      -3.17791836       0.76576032      -1.21859708       0.00000000
Si       3.02505300       0.36074205       1.88584193       0.00000000
Si       1.23184980       0.15232779       3.43073192       0.00000000
Si      -2.68315848      -2.52090098       0.61585199       0.00000000
Si      -2.43947637       0.84996333       2.71716451       0.00000000
Si       3.24772101      -1.31106970      -1.60821702       0.00000000
