10
Lattice="16.28999089631971 0.0 0.0 0.0 16.28999089631971 0.0 0.0 0.0 34.49183129400761" Properties=species:S:1:pos:R:3:initial_magmoms:R:1 pbc="T T T"
Si      -0.81381582      -1.81926671      -1.28754629       0.00000000
Si       1.06564293      -0.59100609       2.04847101       0.00000000
Si       1.87844877       0.96317883      -1.15754651       0.00000000
Si      -1.92432141       1.92489156       0.17908169       0.00000000
Si      -2.18212369      -0.49778819      -2.64514553       0.00000000
Si       0.55179117       2.22265647      -2.63717791       0.00000000
Si      -0.34730280      -2.31686873       2.82919404       0.00000000
Si      -2.37710033      -3.01825097       0.13055165       0.00000000
Si      -0.71643420       3.59591976      -1.16547963       0.00000000
Si      -3.58558280       0.82156986      -1.20297227       0.00000000
