10
Lattice="16.28999089631971 0.0 0.0 0.0 16.28999089631971 0.0 0.0 0.0 34.49183129400761" Properties=species:S:1:pos:R:3:initial_magmoms:R:1 pbc="T T T"
Si      -0.85924863       1.91488950       1.10339430       0.00000000
Si      -0.46314099      -2.13835572       0.95463095       0.00000000
Si       2.34592290      -0.30900501      -0.38920604       0.00000000
Si      -1.11047301      -0.72172845      -2.10486518       0.00000000
Si       1.34803008       2.71560816       1.66481815       0.00000000
Si       2.21337117      -2.61760752      -1.43075645       0.00000000
Si      -2.15388009       1.03506660       2.91190550       0.00000000
Si       2.91814173       1.70334756      -1.67664886       0.00000000
Si       0.22074579      -2.65950540      -2.79163242       0.00000000
Si       0.31499973      -2.21757399       3.16155752       0.00000000
