10
Lattice="16.28999089631971 0.0 0.0 0.0 16.28999089631971 0.0 0.0 0.0 34.49183129400761" Properties=species:S:1:pos:R:3:initial_magmoms:R:1 pbc="T T T"
Si      -1.29225312      -1.73625336      -0.81811220       0.00000000
Si       0.91530252      -0.77559948       1.97969426       0.00000000
Si      -0.76773141       2.23604685       0.06884573       0.00000000
Si       1.13847552      -0.84854610      -2.65169898       0.00000000
Si       2.28636666      -2.05975647       0.37289140       0.00000000
Si       0.47254032      -3.35324763      -0.54355707       0.00000000
Si       1.58786775       3.15014391       0.29411201       0.00000000
Si       0.76084074       1.33449309      -3.35650545       0.00000000
Si      -2.10548250      -1.09240740      -2.92790972       0.00000000
Si      -2.25769626       2.45412108      -1.83655308       0.00000000
