10
Lattice="16.28999089631971 0.0 0.0 0.0 16.28999089631971 0.0 0.0 0.0 34.49183129400761" Properties=species:S:1:pos:R:3:initial_magmoms:R:1 pbc="T T T"
Si      -1.35580041      -1.35633798       1.35825458       0.00000000
Si       1.35677781      -1.35734796      -1.35680593       0.00000000
Si      -1.35806472       1.35746199      -1.35701288       0.00000000
Si       1.35984033       1.35762489       1.35628855       0.00000000
Si       2.71435383      -2.71494027       0.00068984       0.00000000
Si       2.71463076       0.00003258      -2.71481907       0.00000000
Si       0.00006516      -2.71484253      -2.71464661       0.00000000
Si       2.71469592       2.71510317       0.00017246       0.00000000
Si      -0.00066789       2.71529865      -2.71457762       0.00000000
Si      -2.71585251      -0.00045612      -2.71409474       0.00000000
