10
Lattice="16.28999089631971 0.0 0.0 0.0 16.28999089631971 0.0 0.0 0.0 34.49183129400761" Properties=species:S:1:pos:R:3:initial_magmoms:R:1 pbc="T T T"
Si       0.68652576       1.62694746       1.61904747       0.00000000
Si       0.96554088      -1.96393869       1.11667366       0.00000000
Si      -2.44644849       0.31061772      -0.22288634       0.00000000
Si       0.30100662       0.95193873      -2.43960859       0.00000000
Si       2.21464179       1.06197768      -1.18131139       0.00000000
Si       3.17281959      -1.16322003       1.67809751       0.00000000
Si      -3.34111158      -1.89719856       0.05111692       0.00000000
Si      -1.20117573       2.15184384       2.95788314       0.00000000
Si      -3.05905023       1.81977219       1.49066880       0.00000000
Si       2.56140702       0.74503944       2.83816192       0.00000000
