10
Lattice="16.28999089631971 0.0 0.0 0.0 16.28999089631971 0.0 0.0 0.0 34.49183129400761" Properties=species:S:1:pos:R:3:initial_magmoms:R:1 pbc="T T T"
Si       0.68870862      -1.92551058      -1.38377855       0.00000000
Si       1.44884889       1.24230798       1.62673022       0.00000000
Si      -1.35521397      -1.36391283       1.73453105       0.00000000
Si      -0.42718896       1.41817482      -2.21420435       0.00000000
Si      -1.66689054      -2.83960764      -1.60904483       0.00000000
Si       2.39189328      -2.94759405       0.04884046       0.00000000
Si      -2.96023509      -2.36174049       0.36809703       0.00000000
Si       3.22675578       2.36130066       0.39907071       0.00000000
Si      -0.03409497       2.57300550       3.15268073       0.00000000
Si       2.66699880      -0.13823694       3.17061305       0.00000000
