10
Lattice="16.28999089631971 0.0 0.0 0.0 16.28999089631971 0.0 0.0 0.0 34.49183129400761" Properties=species:S:1:pos:R:3:initial_magmoms:R:1 pbc="T T T"
Si       1.26473931      -1.12045878       1.62394531       0.00000000
Si      -2.26890378      -0.14351490       0.61326510       0.00000000
Si       0.27078867      -0.89244765      -2.17102055       0.00000000
Si       0.41425470       2.37738608      -0.00258689       0.00000000
Si      -1.73260440      -0.11945457      -3.02148611       0.00000000
Si      -3.14325324       0.82449459      -1.32955736       0.00000000
Si       0.14082705      -3.21797547      -1.79747381       0.00000000
Si      -2.41124580       0.90879208       2.71923402       0.00000000
Si       1.22730489       0.21986613       3.58253055       0.00000000
Si      -0.49731741       3.24279233      -2.00518373       0.00000000
