10
Lattice="16.28999089631971 0.0 0.0 0.0 16.28999089631971 0.0 0.0 0.0 34.49183129400761" Properties=species:S:1:pos:R:3:initial_magmoms:R:1 pbc="T T T"
Si      -1.72506213       1.12058910      -1.12136455       0.00000000
Si       0.21532122       0.49247928       2.28287762       0.00000000
Si       2.06645166       0.83614941      -0.92207064       0.00000000
Si      -0.37478403      -2.33124561      -0.58387805       0.00000000
Si       1.35410625      -2.32661925      -2.18436890       0.00000000
Si       3.09386196      -1.20930444      -1.09515075       0.00000000
Si      -1.68762771      -0.21973581      -3.07994980       0.00000000
Si       1.94474907      -0.92017323       3.06128971       0.00000000
Si       3.18748059      -1.74737943       1.20197201       0.00000000
Si      -2.30391099      -2.29407183      -2.03167347       0.00000000
