10
Lattice="16.28999089631971 0.0 0.0 0.0 16.28999089631971 0.0 0.0 0.0 34.49183129400761" Properties=species:S:1:pos:R:3:initial_magmoms:R:1 pbc="T T T"
Si       1.79686845       1.01773404      -1.04711740       0.00000000
Si       1.43863506      -1.26247500       1.35073536       0.00000000
Si      -1.27772244       1.47396807       1.31600897       0.00000000
Si      -0.89611290      -1.30398192      -1.76889873       0.00000000
Si       0.84255138       1.07466759      -3.15167702       0.00000000
Si      -2.48515353      -2.60458366      -0.20888265       0.00000000
Si       0.09953190      -2.60888422       2.69805258       0.00000000
Si      -2.61749349       0.10907784       2.69005047       0.00000000
Si       3.57200604      -0.70076322      -1.06335202       0.00000000
Si       2.79652059      -2.64730419       0.05477306       0.00000000
