10
Lattice="16.28999089631971 0.0 0.0 0.0 16.28999089631971 0.0 0.0 0.0 34.49183129400761" Properties=species:S:1:pos:R:3:initial_magmoms:R:1 pbc="T T T"
Si      -1.24910091      -1.48533849       1.31569164       0.00000000
Si       1.19729871      -1.49096668      -1.41654581       0.00000000
Si       1.11501792       1.62489492       1.34911424       0.00000000
Si      -1.51035993       1.20865284      -1.41288967       0.00000000
Si      -2.69037495       2.56049478       0.12116987       0.00000000
Si       2.55640599      -0.14024061      -2.78352683       0.00000000
Si       2.63101419       2.73002481      -0.06787996       0.00000000
Si      -0.66217221       3.37214403       1.61301139       0.00000000
Si      -0.16127100       2.57654043      -2.78363031       0.00000000
Si       2.53402353      -2.83808110      -0.02597236       0.00000000
