10
Lattice="16.28999089631971 0.0 0.0 0.0 16.28999089631971 0.0 0.0 0.0 34.49183129400761" Properties=species:S:1:pos:R:3:initial_magmoms:R:1 pbc="T T T"
Si      -1.07367390       1.63999575       1.35704737       0.00000000
Si       0.02495628      -2.08943685       1.19948860       0.00000000
Si       2.37342042       0.07486884      -0.47429744       0.00000000
Si      -1.42654788       0.24016347      -1.94544385       0.00000000
Si      -2.53864989       0.25519914       2.57719658       0.00000000
Si       1.71074322      -3.44808475       0.23392373       0.00000000
Si       2.93690781       2.18434239      -1.22473663       0.00000000
Si      -1.55909961      -2.06843904      -2.98699426       0.00000000
Si       2.92144860      -0.99139311      -2.53435770       0.00000000
Si      -0.85432905       2.25251604      -3.23288666       0.00000000
