10
Lattice="16.28999089631971 0.0 0.0 0.0 16.28999089631971 0.0 0.0 0.0 34.49183129400761" Properties=species:S:1:pos:R:3:initial_magmoms:R:1 pbc="T T T"
Si       1.58061870      -0.14830416      -1.71324471       0.00000000
Si       0.21717828      -2.08882597       1.04237822       0.00000000
Si      -2.17321632      -0.12202839      -0.87326467       0.00000000
Si       0.49933737       1.78173504       1.47380228       0.00000000
Si      -3.44632869      -0.32558823       1.09273632       0.00000000
Si       0.39164418       0.83362446      -3.57056188       0.00000000
Si       2.41290738      -2.40464346      -1.46369617       0.00000000
Si       2.52293004      -2.58289190       0.93276311       0.00000000
Si      -0.02322954       3.76904988       0.41245355       0.00000000
Si      -2.91592629       2.01043035      -1.40840573       0.00000000
