10
Lattice="16.28999089631971 0.0 0.0 0.0 16.28999089631971 0.0 0.0 0.0 34.49183129400761" Properties=species:S:1:pos:R:3:initial_magmoms:R:1 pbc="T T T"
Si       1.99715400       1.07266229       0.62016347       0.00000000
Si      -2.30575176       0.49406593       0.10961510       0.00000000
Si      -0.20978262      -1.67719464       1.68047745       0.00000000
Si      -0.11002266       0.17824844      -2.39645929       0.00000000
Si      -1.59229863      -3.06611262       0.40672790       0.00000000
Si      -0.94231134       2.43458774      -2.64600782       0.00000000
Si      -3.32172648      -1.65346011      -0.37168418       0.00000000
Si      -2.52293004       2.58289190      -0.93276311       0.00000000
Si       3.72448044      -0.49880469      -0.02597236       0.00000000
Si       1.88336835       3.30292619      -0.34040007       0.00000000
