10
Lattice="16.28999089631971 0.0 0.0 0.0 16.28999089631971 0.0 0.0 0.0 34.49183129400761" Properties=species:S:1:pos:R:3:initial_magmoms:R:1 pbc="T T T"
Si       1.81953696       0.04775576       1.46731782       0.00000000
Si       0.02406945       2.32898293      -0.26062042       0.00000000
Si       0.28755369      -1.19013274      -2.00104471       0.00000000
Si      -1.20084799      -0.99563014       1.79092036       0.00000000
Si       0.73102939      -0.88091759       3.31528769       0.00000000
Si       2.36064189       2.51174044      -0.74885257       0.00000000
Si      -1.39124551      -0.08009630      -3.25751384       0.00000000
Si       0.33454545      -3.41399860      -1.18455362       0.00000000
Si       3.17297532      -1.69776565       0.89285604       0.00000000
Si       2.46400194      -0.83324979      -2.82233016       0.00000000
