10
Lattice="16.28999089631971 0.0 0.0 0.0 16.28999089631971 0.0 0.0 0.0 34.49183129400761" Properties=species:S:1:pos:R:3:initial_magmoms:R:1 pbc="T T T"
Si      -0.91882116      -1.92360465      -0.97187687       0.00000000
Si       1.46497599       1.38479661      -1.22014921       0.00000000
Si       1.18897452      -0.98192862       1.85731717       0.00000000
Si      -1.74653235       1.61486028       0.44052992       0.00000000
Si       2.48150457       1.95620094       0.85425966       0.00000000
Si      -2.71202436      -2.13201891       0.57301311       0.00000000
Si       2.53864989      -0.25519914      -2.57719658       0.00000000
Si      -0.39164418      -0.83362446       3.57056188       0.00000000
Si       2.56360617      -2.34463599      -1.37770799       0.00000000
Si      -3.38770098       1.32903594      -1.22152889       0.00000000
