10
Lattice="16.28999089631971 0.0 0.0 0.0 16.28999089631971 0.0 0.0 0.0 34.49183129400761" Properties=species:S:1:pos:R:3:initial_magmoms:R:1 pbc="T T T"
Si       1.59255927       1.59539373       0.71242917       0.00000000
Si      -1.92813327       0.50891589      -1.31993414       0.00000000
Si      -1.37671677      -0.45887301       1.91947148       0.00000000
Si       1.51966152      -1.43809749      -1.20928428       0.00000000
Si      -2.70837540      -1.77943815      -1.62301403       0.00000000
Si       3.33993870      -0.11795589      -1.79833611       0.00000000
Si       3.10433643       2.05853472      -1.00974893       0.00000000
Si       0.55850265       3.40967619       1.73328447       0.00000000
Si       0.50313294      -2.00950182      -3.28369316       0.00000000
Si      -3.66477759      -0.41475969       1.40499104       0.00000000
