10
Lattice="16.28999089631971 0.0 0.0 0.0 16.28999089631971 0.0 0.0 0.0 34.49183129400761" Properties=species:S:1:pos:R:3:initial_magmoms:R:1 pbc="T T T"
Si      -1.27348704       1.31514057       1.51534772       0.00000000
Si       1.38264633       1.41315750      -1.39705933       0.00000000
Si       1.44081792      -1.39171986       1.50840106       0.00000000
Si      -1.54859256      -1.49421654      -1.60642487       0.00000000
Si      -2.49163695       2.69568549      -0.02853511       0.00000000
Si       2.72758131       2.57008959       0.14364476       0.00000000
Si      -2.62298322      -0.04585635       2.89098274       0.00000000
Si       2.72763018       0.08392608      -2.81719230       0.00000000
Si      -2.74108572      -2.81776275       0.03603709       0.00000000
Si       0.09024660       2.67041970       2.89343167       0.00000000
