10
Lattice="16.28999089631971 0.0 0.0 0.0 16.28999089631971 0.0 0.0 0.0 34.49183129400761" Properties=species:S:1:pos:R:3:initial_magmoms:R:1 pbc="T T T"
Si       0.86952762       1.67801661      -1.32562529       0.00000000
Si      -1.79675442      -0.97521714      -1.20486932       0.00000000
Si       1.70883729      -1.67710437       0.13244871       0.00000000
Si      -0.51170148       1.56646269       1.78160756       0.00000000
Si       2.28449331       0.37962216      -2.60051307       0.00000000
Si      -0.44634600      -2.34129654      -2.57036720       0.00000000
Si       2.51918334       2.72389977       0.02186783       0.00000000
Si      -0.98697852       0.03995937       3.68524728       0.00000000
Si       1.75646925       2.53359999       2.33264936       0.00000000
Si       3.58546158      -0.93445956      -1.13757572       0.00000000
