10
Lattice="16.28999089631971 0.0 0.0 0.0 16.28999089631971 0.0 0.0 0.0 34.49183129400761" Properties=species:S:1:pos:R:3:initial_magmoms:R:1 pbc="T T T"
Si       1.07626401       1.86329581      -0.96556486       0.00000000
Si      -1.23113304       1.50799462       1.41306213       0.00000000
Si       1.90391004      -0.90664668       1.41568351       0.00000000
Si      -1.28203929      -1.32280731      -2.14021933       0.00000000
Si       0.30037131      -1.99364580       2.84498928       0.00000000
Si       1.84077000       0.78065915      -2.89359033       0.00000000
Si      -1.58493555      -2.96985663       1.49863642       0.00000000
Si      -1.13909454      -3.40916535      -0.96559936       0.00000000
Si      -0.68852943       3.48029008      -1.24012000       0.00000000
Si      -2.64313232       2.75699779       0.00193154       0.00000000
