10
Lattice="16.28999089631971 0.0 0.0 0.0 16.28999089631971 0.0 0.0 0.0 34.49183129400761" Properties=species:S:1:pos:R:3:initial_magmoms:R:1 pbc="T T T"
Si      -0.26137305      -2.17618110       0.74609322       0.00000000
Si       2.27880810      -0.22713147       0.53138145       0.00000000
Si      -0.09361863       0.53807499      -2.29712276       0.00000000
Si      -1.24273152       0.82720620       1.85931770       0.00000000
Si       1.69200972      -2.01965049       2.07278776       0.00000000
Si      -1.12102893       2.58352884      -2.12404265       0.00000000
Si      -3.18748059       1.74737943      -1.20197201       0.00000000
Si       2.00347452       0.02748123      -3.27117262       0.00000000
Si      -2.31572124      -2.51913447       1.74111412       0.00000000
Si       0.13978449       2.21612418       3.13306725       0.00000000
