10
Lattice="16.28999089631971 0.0 0.0 0.0 16.28999089631971 0.0 0.0 0.0 34.49183129400761" Properties=species:S:1:pos:R:3:initial_magmoms:R:1 pbc="T T T"
Si      -1.35679410      -1.35759207       1.35701288       0.00000000
Si       1.35729909      -1.35790158      -1.35746127       0.00000000
Si      -1.35826020       1.35754598      -1.35728881       0.00000000
Si       1.35930276       1.35762743       1.35701288       0.00000000
Si       2.71428867       0.00055410       2.71192175       0.00000000
Si       0.00016290      -2.71479342      -2.71343939       0.00000000
Si      -0.00071676       2.71470335      -2.71471559       0.00000000
Si       2.71489332      -2.71461423       0.00006898       0.00000000
Si      -2.71511946      -0.00084684       2.71440516       0.00000000
Si       2.71499167       2.71471964       0.00024144       0.00000000
