10
Lattice="16.28999089631971 0.0 0.0 0.0 16.28999089631971 0.0 0.0 0.0 34.49183129400761" Properties=species:S:1:pos:R:3:initial_magmoms:R:1 pbc="T T T"
Si       1.61156970       1.06445213      -1.42503081       0.00000000
Si       1.65100779      -1.12098495       1.35135621       0.00000000
Si      -1.06253154      -1.59810422      -1.46473093       0.00000000
Si      -0.66691260       2.85048773       1.58410722       0.00000000
Si       2.30993082       1.12423643       2.37231499       0.00000000
Si      -2.51644662      -1.12822096       2.42381132       0.00000000
Si       0.11069055       1.46060864       3.37219925       0.00000000
Si      -2.39925636      -0.25098980      -2.85530437       0.00000000
Si       0.31969125       2.46532697      -2.85240706       0.00000000
Si      -2.48153715       2.86487180      -0.08964432       0.00000000
