10
Lattice="16.28999089631971 0.0 0.0 0.0 16.28999089631971 0.0 0.0 0.0 34.49183129400761" Properties=species:S:1:pos:R:3:initial_magmoms:R:1 pbc="T T T"
Si      -0.04382010      -2.34362016       0.15379916       0.00000000
Si      -1.68578694       1.35864790       0.96556486       0.00000000
Si       1.41597567       0.70349668       1.77219128       0.00000000
Si       0.48516507       0.26599452      -2.31271307       0.00000000
Si      -0.51147342       1.39691311       3.07698350       0.00000000
Si       2.12879349      -2.75476347      -0.81397318       0.00000000
Si       2.44126827      -1.01699514      -2.43715967       0.00000000
Si       0.66267720       3.52295359      -0.70822117       0.00000000
Si      -1.95302439      -2.90049381      -1.19000334       0.00000000
Si       2.06338914       2.90134348       1.10860257       0.00000000
