10
Lattice="16.28999089631971 0.0 0.0 0.0 16.28999089631971 0.0 0.0 0.0 34.49183129400761" Properties=species:S:1:pos:R:3:initial_magmoms:R:1 pbc="T T T"
Si       1.35608519       1.35799956      -1.35708186       0.00000000
Si      -1.35738054       1.35682668       1.35770271       0.00000000
Si      -1.35777150      -1.35822762      -1.35704737       0.00000000
Si       1.35793693      -1.35821133       1.35790967       0.00000000
Si       0.00079821       2.71379997      -2.71209421       0.00000000
Si      -2.71440270       2.71467963       0.00034492       0.00000000
Si      -2.71412577      -0.00105885       2.71561238       0.00000000
Si       2.71519832       2.71458189       0.00044839       0.00000000
Si       0.00224802      -2.71530354       2.71468110       0.00000000
Si      -2.71531494      -2.71538499       0.00037941       0.00000000
