10
Lattice="16.28999089631971 0.0 0.0 0.0 16.28999089631971 0.0 0.0 0.0 34.49183129400761" Properties=species:S:1:pos:R:3:initial_magmoms:R:1 pbc="T T T"
Si       1.35764118       1.35681039      -1.35690940       0.00000000
Si       1.35702216      -1.35785295       1.35735780       0.00000000
Si      -1.35799956      -1.35778779      -1.35690940       0.00000000
Si      -1.35778779       1.35744570       1.35756475       0.00000000
Si       2.71520091      -0.00087966      -2.71243913       0.00000000
Si       2.71440270      -2.71467963      -0.00034492       0.00000000
Si       2.71463076       2.71477737      -0.00010348       0.00000000
Si      -0.00008145       2.71660185       2.71340490       0.00000000
Si      -2.71505430       2.71515204      -0.00003449       0.00000000
Si      -2.71559187      -2.71526607      -0.00003449       0.00000000
