10
Lattice="16.28999089631971 0.0 0.0 0.0 16.28999089631971 0.0 0.0 0.0 34.49183129400761" Properties=species:S:1:pos:R:3:initial_magmoms:R:1 pbc="T T T"
Si       1.35655436       1.35635427      -1.35887544       0.00000000
Si      -1.36370106       1.35698958       1.35487438       0.00000000
Si      -1.35870003      -1.35923760      -1.35866849       0.00000000
Si       1.35619612      -1.36231641       1.35877196       0.00000000
Si       2.71312949       2.71269225      -0.00265587       0.00000000
Si      -0.00109143       2.71339272      -2.71612976       0.00000000
Si       2.71387883      -0.00148239      -2.71592281       0.00000000
Si      -2.71580364       2.71521720      -0.00262138       0.00000000
Si       2.71512502      -2.71598283      -0.00162112       0.00000000
Si      -2.71572219      -0.00138465      -2.71602628       0.00000000
