10
Lattice="16.28999089631971 0.0 0.0 0.0 16.28999089631971 0.0 0.0 0.0 34.49183129400761" Properties=species:S:1:pos:R:3:initial_magmoms:R:1 pbc="T T T"
Si       1.35614583       1.35783666      -1.35763373       0.00000000
Si      -1.35698958      -1.35796698      -1.35680593       0.00000000
Si       1.35764579      -1.35703845       1.35725432       0.00000000
Si      -1.35780408       1.35783666       1.35739229       0.00000000
Si       2.71422092      -0.00070047       2.71347388       0.00000000
Si       0.00057015      -2.71565703      -2.71233565       0.00000000
Si      -2.71471221       0.00182448       2.71350838       0.00000000
Si      -2.71463076      -2.71477737       0.00010348       0.00000000
Si       0.00109143      -2.71339272       2.71612976       0.00000000
Si       2.71497026      -2.71487511       0.00020695       0.00000000
