10
Lattice="16.28999089631971 0.0 0.0 0.0 16.28999089631971 0.0 0.0 0.0 34.49183129400761" Properties=species:S:1:pos:R:3:initial_magmoms:R:1 pbc="T T T"
Si      -0.74227014       2.21495130      -0.04038996       0.00000000
Si       1.94934026      -0.25329321      -1.27947520       0.00000000
Si       1.00009557       0.08594604       2.14263376       0.00000000
Si      -2.00357226      -1.13397948      -0.55524981       0.00000000
Si      -2.00922489       2.16621162       1.97307182       0.00000000
Si       0.26031420      -1.98509940       2.99661749       0.00000000
Si      -2.70407484       0.11823282      -2.40370257       0.00000000
Si       1.32140800       3.36948876      -0.10716618       0.00000000
Si       2.59863686       2.01453543      -1.56213591       0.00000000
Si      -2.28455847       2.42082432      -1.82948225       0.00000000
