10
Lattice="16.28999089631971 0.0 0.0 0.0 16.28999089631971 0.0 0.0 0.0 34.49183129400761" Properties=species:S:1:pos:R:3:initial_magmoms:R:1 pbc="T T T"
Si      -0.38211453       2.06671230       1.14899253       0.00000000
Si       1.91782170      -1.19448054      -1.06365969       0.00000000
Si      -2.06854004      -1.07152362       2.29150058       0.00000000
Si      -2.50840995      -2.12843511       0.15052244       0.00000000
Si       0.20574270      -0.89168202       3.17425052       0.00000000
Si       1.75568733      -2.29710177       1.60318121       0.00000000
Si       0.14560002      -2.03567985      -2.60144435       0.00000000
Si       1.10040579       1.31613426       2.90024726       0.00000000
Si      -2.76329618       1.29888315       1.91222820       0.00000000
Si      -2.53759137       0.74023389      -2.67708498       0.00000000
