10
Lattice="16.28999089631971 0.0 0.0 0.0 16.28999089631971 0.0 0.0 0.0 34.49183129400761" Properties=species:S:1:pos:R:3:initial_magmoms:R:1 pbc="T T T"
Si       0.16711911       1.81872963       1.44044866       0.00000000
Si       0.20768121      -2.08178055       1.07752541       0.00000000
Si       2.12986278       0.01993896      -1.07759440       0.00000000
Si      -1.77468147       0.09490554      -1.75263440       0.00000000
Si       0.47959389       3.55649796      -0.18273782       0.00000000
Si       2.38033457       1.38098475       2.40504776       0.00000000
Si       0.71016255      -3.54704976      -0.75992445       0.00000000
Si       3.61775555       0.02363679       0.83946266       0.00000000
Si      -1.86237054      -2.54943387       2.00825351       0.00000000
Si      -2.00549448       2.22987294       2.40822101       0.00000000
