10
Lattice="16.28999089631971 0.0 0.0 0.0 16.28999089631971 0.0 0.0 0.0 34.49183129400761" Properties=species:S:1:pos:R:3:initial_magmoms:R:1 pbc="T T T"
Si      -0.43986991      -1.05691149      -2.14097815       0.00000000
Si       2.27428274       0.17984160       0.88274993       0.00000000
Si      -2.14042848      -0.16661412       1.17641355       0.00000000
Si      -0.69475614       2.37040677      -0.37927239       0.00000000
Si       2.06854004       1.07152362      -2.29150058       0.00000000
Si       1.60383521      -0.22542102       3.13765466       0.00000000
Si      -3.50953782       0.08736327      -0.75437126       0.00000000
Si      -2.52917304       1.89284913      -1.85097067       0.00000000
Si       1.68642551       3.13823592      -1.14250806       0.00000000
Si       0.04335258      -3.67872183      -1.13309178       0.00000000
