10
Lattice="16.28999089631971 0.0 0.0 0.0 16.28999089631971 0.0 0.0 0.0 34.49183129400761" Properties=species:S:1:pos:R:3:initial_magmoms:R:1 pbc="T T T"
Si      -0.70913628       1.32670647       1.75949828       0.00000000
Si       2.30940072       0.20707848       0.23954590       0.00000000
Si      -0.73528173       0.28817010      -2.24017671       0.00000000
Si      -0.55692252      -2.21982201       0.66814164       0.00000000
Si      -0.13193271       3.34067175       0.73139969       0.00000000
Si       2.68703550      -1.97596071       0.94435238       0.00000000
Si      -3.05627183      -0.00516393      -1.89967316       0.00000000
Si       0.60703056      -1.19920464      -3.50578618       0.00000000
Si       0.12074148      -3.69183528      -1.04130897       0.00000000
Si      -3.05003276       1.61751555       1.75739428       0.00000000
