10
Lattice="16.28999089631971 0.0 0.0 0.0 16.28999089631971 0.0 0.0 0.0 34.49183129400761" Properties=species:S:1:pos:R:3:initial_magmoms:R:1 pbc="T T T"
Si      -1.11819936       1.37546244      -1.50470698       0.00000000
Si       0.38211453      -2.06671230      -1.14899253       0.00000000
Si       1.48252032      -0.75057804       1.75125473       0.00000000
Si      -2.38118165      -0.76782915       0.76323567       0.00000000
Si      -0.96148141       2.79915957       0.44556573       0.00000000
Si       2.67384060       1.65936456      -0.52424164       0.00000000
Si       0.58785723      -2.95839432       2.02525799       0.00000000
Si       0.86991858       0.75857643       3.46480987       0.00000000
Si       0.52641135       2.80285740       2.36262278       0.00000000
Si      -1.68642551      -3.13823592       1.14250806       0.00000000
