10
Lattice="16.28999089631971 0.0 0.0 0.0 16.28999089631971 0.0 0.0 0.0 34.49183129400761" Properties=species:S:1:pos:R:3:initial_magmoms:R:1 pbc="T T T"
Si      -1.26630315       0.95320935      -1.82010046       0.00000000
Si       1.43819034      -1.71664020      -0.91979418       0.00000000
Si       1.37586480       1.47955554       1.40126592       0.00000000
Si      -1.47578164      -1.39792635       1.58493503       0.00000000
Si      -1.40764366      -1.11615822      -3.07098192       0.00000000
Si       0.92661918      -1.46307006      -3.21936586       0.00000000
Si      -1.47990970      -3.43979640       0.10620041       0.00000000
Si       1.23292005       3.56591358       0.22664595       0.00000000
Si       0.86098677      -3.73060548       0.10830441       0.00000000
Si       3.59065320       0.30910275       1.40854370       0.00000000
