10
Lattice="16.28999089631971 0.0 0.0 0.0 16.28999089631971 0.0 0.0 0.0 34.49183129400761" Properties=species:S:1:pos:R:3:initial_magmoms:R:1 pbc="T T T"
Si       0.70913628      -1.32670647      -1.75949828       0.00000000
Si       0.57720357       2.01396528      -1.02809859       0.00000000
Si      -2.34089648       0.29080908      -0.00210400       0.00000000
Si       1.48996485      -0.21807423       1.90539881       0.00000000
Si      -2.65506542      -2.03033673       1.09611652       0.00000000
Si       3.01853700      -1.11962799      -1.51995238       0.00000000
Si      -2.33676841       2.33267913       1.47663061       0.00000000
Si       0.15221376      -3.54652848      -1.09135664       0.00000000
Si       2.25769626      -2.45412108       1.83655308       0.00000000
Si      -0.86098677       3.73060548      -0.10830441       0.00000000
