10
Lattice="16.28999089631971 0.0 0.0 0.0 16.28999089631971 0.0 0.0 0.0 34.49183129400761" Properties=species:S:1:pos:R:3:initial_magmoms:R:1 pbc="T T T"
Si       0.72315106      -0.32865075       2.28894819       0.00000000
Si      -2.34397480       0.62695323       0.50734063       0.00000000
Si      -0.00412807      -2.04187005      -1.47873462       0.00000000
Si       1.47578164       1.39792635      -1.58493503       0.00000000
Si       2.33676841      -2.33267913      -1.47663061       0.00000000
Si       2.91397198      -0.31871385      -2.50472920       0.00000000
Si      -1.18741738      -1.27143450       3.59886041       0.00000000
Si       2.85164644       2.87748189      -0.18366910       0.00000000
Si       2.53338871      -2.07288621       2.40591005       0.00000000
Si       0.20947849       2.35113570      -3.40503549       0.00000000
