10
Lattice="16.28999089631971 0.0 0.0 0.0 16.28999089631971 0.0 0.0 0.0 34.49183129400761" Properties=species:S:1:pos:R:3:initial_magmoms:R:1 pbc="T T T"
Si      -0.87434946       0.96800949      -1.94282247       0.00000000
Si      -1.07155620      -2.09054457       0.04921987       0.00000000
Si       2.26890378       0.14351490      -0.61326510       0.00000000
Si      -0.14234202       1.05230698       2.10596892       0.00000000
Si       0.53629938       0.02406033      -3.63475121       0.00000000
Si       2.68315848       2.52090098      -0.61585199       0.00000000
Si       0.16586478      -3.44789253      -1.51636523       0.00000000
Si      -3.28477166      -1.65279969      -0.91537922       0.00000000
Si      -0.49475988       3.28666130      -1.83444907       0.00000000
Si      -2.31879028       0.69542403       2.92725437       0.00000000
