10
Lattice="16.28999089631971 0.0 0.0 0.0 16.28999089631971 0.0 0.0 0.0 34.49183129400761" Properties=species:S:1:pos:R:3:initial_magmoms:R:1 pbc="T T T"
Si       2.06780373       0.45282942       0.99850458       0.00000000
Si      -1.27722885       1.35495333       1.45496973       0.00000000
Si      -0.64929659      -2.26782864       0.28266072       0.00000000
Si      -0.07698654       0.79285059      -2.23955586       0.00000000
Si      -2.59863686      -2.01453543       1.56213591       0.00000000
Si      -3.34090700       0.20041587       1.52174596       0.00000000
Si       1.82632077      -0.27202671       3.19397985       0.00000000
Si       0.04479750       1.25823960       3.50713137       0.00000000
Si      -0.64055864      -3.16799775      -1.86711286       0.00000000
Si       0.99456966       2.88339516      -2.28877573       0.00000000
