10
Lattice="10.86 0.0 0.0 0.0 10.86 0.0 0.0 0.0 10.86" Properties=species:S:1:pos:R:3:initial_magmoms:R:1 pbc="T T T"
Si      -1.24692348      -1.22300976      -1.44323970       0.00000000
Si       1.20884832      -1.55072112       1.33371660       0.00000000
Si      -1.37974128       1.27316124       1.50721596       0.00000000
Si       0.18858390       2.33911368      -2.62232076       0.00000000
Si       2.54113140      -2.67218988       0.01614882       0.00000000
Si       2.54113140       0.04281012       2.73114882       0.00000000
Si      -0.17386860      -2.67218988      -2.69885118       0.00000000
Si      -0.17386860      -2.67218988       2.73114882       0.00000000
Si      -0.17386860       2.75781012       2.73114882       0.00000000
Si      -2.88886860      -2.67218988       0.01614882       0.00000000
