10
Lattice="10.86 0.0 0.0 0.0 10.86 0.0 0.0 0.0 10.86" Properties=species:S:1:pos:R:3:initial_magmoms:R:1 pbc="T T T"
Si       1.57399410       1.43688660       1.00595094       0.00000000
Si      -1.14100590       1.43688660      -1.70904906       0.00000000
Si       1.57399410      -1.27811340      -1.70904906       0.00000000
Si      -2.27048934       0.09806580       2.39509698       0.00000000
Si       0.20222406      -2.44446654       2.24158002       0.00000000
Si       0.21649410       2.79438660       2.36345094       0.00000000
Si      -2.49850590       2.79438660      -0.35154906       0.00000000
Si       2.93149410       0.07938660       2.36345094       0.00000000
Si      -2.49485694      -0.06962346      -2.84562408       0.00000000
Si       2.93149410      -2.63561340      -0.35154906       0.00000000
