10
Lattice="10.86 0.0 0.0 0.0 10.86 0.0 0.0 0.0 10.86" Properties=species:S:1:pos:R:3:initial_magmoms:R:1 pbc="T T T"
Si       1.26655836       1.40692386      -1.21925220       0.00000000
Si      -1.51622976      -1.26060708      -1.33162062       0.00000000
Si      -1.58563602       1.50957258       1.37370312       0.00000000
Si      -0.13505496      -2.48299782       2.27324778       0.00000000
Si      -2.72842296       0.07207782       2.52386400       0.00000000
Si      -0.01342296       2.78707782       2.52386400       0.00000000
Si      -2.72842296      -2.64292218      -0.19113600       0.00000000
Si       2.70157704       2.78707782      -0.19113600       0.00000000
Si      -2.72842296       2.78707782      -0.19113600       0.00000000
Si      -0.01342296      -2.64292218      -2.90613600       0.00000000
