10
Lattice="10.86 0.0 0.0 0.0 10.86 0.0 0.0 0.0 10.86" Properties=species:S:1:pos:R:3:initial_magmoms:R:1 pbc="T T T"
Si       1.35750000       1.35750000       1.35750000       0.00000000
Si       1.35750000      -1.35750000      -1.35750000       0.00000000
Si      -1.35750000       1.35750000      -1.35750000       0.00000000
Si      -1.35750000      -1.35750000       1.35750000       0.00000000
Si       2.56969320       0.02481510      -2.49798462       0.00000000
Si      -2.62379772       2.64589782      -0.00578838       0.00000000
Si       2.50028694       2.79499476       0.20733912       0.00000000
Si      -2.76129618      -2.58597234       0.08661936       0.00000000
Si      -2.73243030       0.14442714       2.61889986       0.00000000
Si       2.75150046      -2.61582648       0.07034022       0.00000000
