10
Lattice="10.86 0.0 0.0 0.0 10.86 0.0 0.0 0.0 10.86" Properties=species:S:1:pos:R:3:initial_magmoms:R:1 pbc="T T T"
Si      -1.26068310      -1.15929414       1.41544896       0.00000000
Si       1.45431690      -1.15929414      -1.29955104       0.00000000
Si      -1.15219170       1.56414408      -1.17716970       0.00000000
Si       1.45431690       1.55570586       1.41544896       0.00000000
Si      -2.61818310      -2.51679414       0.05794896       0.00000000
Si       0.09681690      -2.51679414      -2.65705104       0.00000000
Si       0.09681690      -2.51679414       2.77294896       0.00000000
Si       2.81181690      -2.51679414       0.05794896       0.00000000
Si       2.81181690       0.19820586      -2.65705104       0.00000000
Si      -2.73841416       0.23645478      -2.75217378       0.00000000
