10
Lattice="16.28999089631971 0.0 0.0 0.0 16.28999089631971 0.0 0.0 0.0 34.45770212530097" Properties=species:S:1:pos:R:3:initial_magmoms:R:1 pbc="T T T"
Si       1.77587064       0.90901458      -1.05158074       0.00000000
Si       0.57487410      -1.00690771       1.93655840       0.00000000
Si      -1.08514206      -1.74693050      -1.00340885       0.00000000
Si      -2.29625306      -0.32604598      -2.40253017       0.00000000
Si       0.42997455       2.36705103      -2.38926394       0.00000000
Si      -0.15688899       0.79278543       3.40690383       0.00000000
Si      -0.83398284      -3.08023442       1.98979558       0.00000000
Si      -3.60996842       0.95434965      -0.89397112       0.00000000
Si       0.40034304      -3.04931600      -2.38123529       0.00000000
Si      -0.84401748       3.73252770      -0.92215754       0.00000000
