10
Lattice="16.28999089631971 0.0 0.0 0.0 16.28999089631971 0.0 0.0 0.0 34.45770212530097" Properties=species:S:1:pos:R:3:initial_magmoms:R:1 pbc="T T T"
Si       1.35620766       1.35843939      -1.35797880       0.00000000
Si       1.35798327      -1.35779335       1.35704844       0.00000000
Si      -1.35780408       1.35759231       1.35790988       0.00000000
Si      -1.35772263      -1.35884866      -1.35842675       0.00000000
Si       2.71334385      -0.00063042       2.71519953       0.00000000
Si      -0.00156384       2.71495656      -2.71451038       0.00000000
Si       2.71482624      -2.71465424       0.00017229       0.00000000
Si       0.00301365      -2.71408409      -2.71547519       0.00000000
Si       2.71467963       2.71503801      -0.00003446       0.00000000
Si      -2.71555929      -2.71442618       0.00051687       0.00000000
