10
Lattice="16.28999089631971 0.0 0.0 0.0 16.28999089631971 0.0 0.0 0.0 34.45770212530097" Properties=species:S:1:pos:R:3:initial_magmoms:R:1 pbc="T T T"
Si      -1.24898688       1.66399092      -1.15550523       0.00000000
Si      -0.74725488      -1.46447100       1.86071695       0.00000000
Si       1.93605021       1.20747996       1.46207558       0.00000000
Si       1.53209079      -2.06760825       1.27576268       0.00000000
Si      -2.61335583       1.11633741       0.75734626       0.00000000
Si       3.43699452      -0.42090102       0.44998338       0.00000000
Si       0.69027246       0.69730974       3.44780514       0.00000000
Si       1.55593935      -2.21153040      -2.45345868       0.00000000
Si       1.17191889      -3.52195990      -0.47227753       0.00000000
Si       2.37874725       2.04610545      -2.49460120       0.00000000
