10
Lattice="16.28999089631971 0.0 0.0 0.0 16.28999089631971 0.0 0.0 0.0 34.45770212530097" Properties=species:S:1:pos:R:3:initial_magmoms:R:1 pbc="T T T"
Si       0.36383715      -2.23045449      -0.38051662       0.00000000
Si       1.08548415       1.26170937      -1.61644617       0.00000000
Si      -2.25520389       0.64540980      -0.21019210       0.00000000
Si       0.32834124       0.34042842       2.33440725       0.00000000
Si      -0.00710244       3.28305402      -1.08159342       0.00000000
Si       2.54601297      -2.30528261       0.63729556       0.00000000
Si      -1.65770298      -3.17443949       0.50859597       0.00000000
Si       2.67763617      -0.51440562       2.42485877       0.00000000
Si      -2.17622997       2.68944642      -1.40342853       0.00000000
Si       0.48593070       0.19868913      -3.74810419       0.00000000
