10
Lattice="16.28999089631971 0.0 0.0 0.0 16.28999089631971 0.0 0.0 0.0 34.45770212530097" Properties=species:S:1:pos:R:3:initial_magmoms:R:1 pbc="T T T"
Si      -0.70121934      -1.70782146       1.49730657       0.00000000
Si      -1.46098494       1.95214147       0.20926174       0.00000000
Si       1.98276993       0.91681749       1.49925343       0.00000000
Si      -1.89167625      -1.10333214      -1.55349191       0.00000000
Si       0.18891513       2.63933512      -2.31325021       0.00000000
Si      -2.07265815      -0.39055456       2.93961720       0.00000000
Si       0.66368718       2.34502369       2.93295307       0.00000000
Si       2.53821006       1.78450108      -2.22279869       0.00000000
Si      -3.33660251       1.06785348       1.55610867       0.00000000
Si      -2.15221851      -3.31914681      -0.37658844       0.00000000
