10
Lattice="16.28999089631971 0.0 0.0 0.0 16.28999089631971 0.0 0.0 0.0 34.45770212530097" Properties=species:S:1:pos:R:3:initial_magmoms:R:1 pbc="T T T"
Si      -1.35736425      -1.35775521      -1.35635929       0.00000000
Si      -1.35777150       1.35738054       1.35701398       0.00000000
Si       1.35671265       1.35990549      -1.35704844       0.00000000
Si       1.35801585      -1.35811359       1.35790988       0.00000000
Si       0.00071676       2.71370223      -2.71206388       0.00000000
Si      -0.00206883       2.71350675       2.71482049       0.00000000
Si      -2.71459818       2.71451673       0.00051687       0.00000000
Si      -0.00143352      -2.71531494      -2.71437254       0.00000000
Si       2.71524978       2.71450044       0.00031012       0.00000000
Si       2.71480995      -2.71523349       0.00010337       0.00000000
