10
Lattice="16.28999089631971 0.0 0.0 0.0 16.28999089631971 0.0 0.0 0.0 34.45770212530097" Properties=species:S:1:pos:R:3:initial_magmoms:R:1 pbc="T T T"
Si       1.76749758      -0.58782465       1.49956558       0.00000000
Si       1.24577775       0.51017022      -1.98572957       0.00000000
Si      -0.77835249       2.21961024       0.49284879       0.00000000
Si      -1.43752734      -2.16178074      -1.58708819       0.00000000
Si       0.97151931       3.35938896      -0.57337648       0.00000000
Si      -0.69027246      -0.69730974      -3.44780514       0.00000000
Si       2.82005964       2.01228741      -1.01732977       0.00000000
Si       0.84181833      -2.76491799      -2.17204247       0.00000000
Si       3.61224234       0.45084204       0.53126915       0.00000000
Si       1.73657916      -2.97823554       1.53223150       0.00000000
