10
Lattice="16.28999089631971 0.0 0.0 0.0 16.28999089631971 0.0 0.0 0.0 34.45770212530097" Properties=species:S:1:pos:R:3:initial_magmoms:R:1 pbc="T T T"
Si      -1.96470432      -0.58226976      -1.07790644       0.00000000
Si       1.43324307       1.73337003      -0.63777797       0.00000000
Si       0.21546783      -0.33376581       2.31976272       0.00000000
Si      -0.11489337      -2.61794961      -0.17849100       0.00000000
Si       1.24947558      -2.07029610      -2.09134248       0.00000000
Si      -0.79187319      -2.41186482       2.18851326       0.00000000
Si      -0.60178518      -1.09685457      -3.17028266       0.00000000
Si      -2.90854692      -1.66169403       1.33916488       0.00000000
Si       3.64073355       0.66223737      -0.34457721       0.00000000
Si       1.36614456       3.29131305       1.22958933       0.00000000
