10
Lattice="16.28999089631971 0.0 0.0 0.0 16.28999089631971 0.0 0.0 0.0 34.45770212530097" Properties=species:S:1:pos:R:3:initial_magmoms:R:1 pbc="T T T"
Si      -1.34807895      -1.34126973      -1.37214092       0.00000000
Si       1.36736631       1.37583711      -1.36828166       0.00000000
Si      -1.43760879       1.32577794       1.35853012       0.00000000
Si       1.36622601      -1.35122292       1.48602369       0.00000000
Si       0.42331194       2.15523216       2.50469731       0.00000000
Si       2.09486142       0.40578390       2.95481852       0.00000000
Si      -2.67589477      -2.70428661      -0.00441059       0.00000000
Si       0.00636939      -2.69739594      -2.72705299       0.00000000
Si       2.73162123      -2.69995347       0.01771127       0.00000000
Si      -2.70572828       0.01591533      -2.72681178       0.00000000
