10
Lattice="16.28999089631971 0.0 0.0 0.0 16.28999089631971 0.0 0.0 0.0 34.45770212530097" Properties=species:S:1:pos:R:3:initial_magmoms:R:1 pbc="T T T"
Si      -1.42524468       1.23569424       1.32744926       0.00000000
Si      -1.37344248      -1.33535646      -1.35005352       0.00000000
Si       1.33892397       1.37878560      -1.34953666       0.00000000
Si       1.21912731      -1.32722775       1.60269754       0.00000000
Si       2.04336873       0.58660290       2.67205846       0.00000000
Si       0.21209580       2.28204981       2.59194426       0.00000000
Si      -2.31749685      -0.55596141       2.52292544       0.00000000
Si       2.68051950      -2.69588097       0.04686250       0.00000000
Si      -0.64594737      -2.30540967       2.97304666       0.00000000
Si       2.69557146       0.02041137      -2.70792895       0.00000000
