10
Lattice="16.28999089631971 0.0 0.0 0.0 16.28999089631971 0.0 0.0 0.0 34.45770212530097" Properties=species:S:1:pos:R:3:initial_magmoms:R:1 pbc="T T T"
Si       0.35901531       1.31116581       1.95520003       0.00000000
Si      -0.23609097      -2.08287198       1.13303879       0.00000000
Si       2.00886651      -0.05082480      -1.31414858       0.00000000
Si      -2.12503050       0.54296199      -1.04603305       0.00000000
Si      -1.97053614       1.03553901       2.58808500       0.00000000
Si       1.17322209      -1.78417854       3.02480216       0.00000000
Si      -2.38575195       2.83395501      -0.39405850       0.00000000
Si       0.85818978      -3.67590366      -0.22397519       0.00000000
Si       1.77995943       1.60557498      -3.01880651       0.00000000
Si      -3.55084207      -0.63812817       1.62947119       0.00000000
