10
Lattice="16.28999089631971 0.0 0.0 0.0 16.28999089631971 0.0 0.0 0.0 34.45770212530097" Properties=species:S:1:pos:R:3:initial_magmoms:R:1 pbc="T T T"
Si       1.35624024       1.35596331       1.35753085       0.00000000
Si      -1.35755973      -1.35742941       1.35701398       0.00000000
Si       1.35793440      -1.35765747      -1.35691061       0.00000000
Si      -1.35806472       1.35835794      -1.35687615       0.00000000
Si       0.00182448      -2.71331127       2.71561302       0.00000000
Si       2.71448415      -2.71456560       0.00020675       0.00000000
Si       2.71529865       0.00094482      -2.71382122       0.00000000
Si      -0.00022806       2.71393546      -2.71581977       0.00000000
Si      -2.71498914      -2.71482624       0.00003446       0.00000000
Si       0.00127062      -2.71511946      -2.71502724       0.00000000
