10
Lattice="16.28999089631971 0.0 0.0 0.0 16.28999089631971 0.0 0.0 0.0 34.45770212530097" Properties=species:S:1:pos:R:3:initial_magmoms:R:1 pbc="T T T"
Si       1.42524468      -1.23569424      -1.32744926       0.00000000
Si       1.63734048       1.04635557       1.26449500       0.00000000
Si      -0.89225217      -1.79165565       1.19547619       0.00000000
Si      -1.31808906       1.49656230      -1.29640285       0.00000000
Si      -1.50776982      -0.73076940       3.11142887       0.00000000
Si       2.64437199      -2.56292199       0.27524828       0.00000000
Si       0.05180220      -2.57105070      -2.67750278       0.00000000
Si       3.46861341      -0.64909134       1.34460920       0.00000000
Si      -2.66514174       0.14366151      -2.67801965       0.00000000
Si      -2.75317290      -2.62110987       0.04930900       0.00000000
