10
Lattice="16.28999089631971 0.0 0.0 0.0 16.28999089631971 0.0 0.0 0.0 34.45770212530097" Properties=species:S:1:pos:R:3:initial_magmoms:R:1 pbc="T T T"
Si      -1.63734048      -1.04635557      -1.26449500       0.00000000
Si       1.08377370       1.74487077      -1.13362458       0.00000000
Si      -0.67960251       1.45992609       1.90365128       0.00000000
Si       1.83127293      -1.69544691       0.08011420       0.00000000
Si       1.43467659      -1.75897791       2.39160707       0.00000000
Si      -0.21209580      -2.28204981      -2.59194426       0.00000000
Si       1.52474400       2.23389072       2.16866561       0.00000000
Si       2.47922397       0.47258919      -2.59022137       0.00000000
Si      -1.00839987      -1.85214042       3.10171179       0.00000000
Si      -2.52959265      -2.83801122      -0.06901882       0.00000000
