10
Lattice="16.28999089631971 0.0 0.0 0.0 16.28999089631971 0.0 0.0 0.0 34.45770212530097" Properties=species:S:1:pos:R:3:initial_magmoms:R:1 pbc="T T T"
Si      -0.47324079       2.16257895       0.81427041       0.00000000
Si       0.22890708      -1.65639978       1.70465793       0.00000000
Si      -2.13671043       0.07501545      -1.25477792       0.00000000
Si       2.44307646       0.09316251      -0.71010472       0.00000000
Si       0.29600559      -3.21434280      -0.16270936       0.00000000
Si       0.32879736       3.31206651      -1.19806051       0.00000000
Si      -1.52119278      -0.98587080      -3.17073061       0.00000000
Si       1.00839987       1.85214042      -3.10171179       0.00000000
Si       2.50756857      -1.28537874       2.51169223       0.00000000
Si       0.62040465       2.51032158       2.84258973       0.00000000
