10
Lattice="16.28999089631971 0.0 0.0 0.0 16.28999089631971 0.0 0.0 0.0 34.45770212530097" Properties=species:S:1:pos:R:3:initial_magmoms:R:1 pbc="T T T"
Si      -1.69797186      -0.19233603      -1.63949838       0.00000000
Si       1.54890207       1.22487768      -1.30849751       0.00000000
Si       1.57690458      -1.54608390       0.87667335       0.00000000
Si      -1.20853881       0.83101806       1.87312173       0.00000000
Si       3.10192551       0.06631659       1.73904674       0.00000000
Si       1.49099112      -0.07190406      -3.33499056       0.00000000
Si      -3.01467627       1.73413566      -1.19382222       0.00000000
Si       0.24713559       2.35154295       2.91505431       0.00000000
Si      -1.03045653      -1.43578431       3.38850341       0.00000000
Si       0.50831316       3.18658464      -2.10333377       0.00000000
