10
Lattice="16.28999089631971 0.0 0.0 0.0 16.28999089631971 0.0 0.0 0.0 34.45770212530097" Properties=species:S:1:pos:R:3:initial_magmoms:R:1 pbc="T T T"
Si      -1.42028438      -1.18048743      -1.40397986       0.00000000
Si       2.25520389      -0.64540980       0.21019210       0.00000000
Si       0.07897392       2.04403662      -1.19323643       0.00000000
Si      -1.19915088      -0.22004532       2.21866376       0.00000000
Si      -1.51455298      -3.18149059      -0.27311190       0.00000000
Si      -1.44225633       3.23851716       0.08355997       0.00000000
Si       2.24810145       2.63764422      -0.87140132       0.00000000
Si       2.58354513      -0.30498138       2.54459935       0.00000000
Si       3.34068804       0.61629957      -1.40625407       0.00000000
Si      -3.40766342       0.08259030      -1.58664024       0.00000000
