10
Lattice="16.28999089631971 0.0 0.0 0.0 16.28999089631971 0.0 0.0 0.0 34.45770212530097" Properties=species:S:1:pos:R:3:initial_magmoms:R:1 pbc="T T T"
Si       1.35516510      -1.35489062      -1.35487760       0.00000000
Si       1.35513252       1.35897192       1.35739302       0.00000000
Si      -1.35943308      -1.35581915       1.35746193       0.00000000
Si      -1.35780408       1.35863146      -1.36080433       0.00000000
Si       2.71186146      -2.71188020       0.00051687       0.00000000
Si       2.71322982       0.00151847       2.71471712       0.00000000
Si       0.01958058      -2.70648821      -2.72140537       0.00000000
Si      -0.00203625      -2.71347662       2.71461375       0.00000000
Si      -2.71645524      -2.71300421       0.00086144       0.00000000
Si      -2.71627605       0.00104174       2.71433809       0.00000000
