10
Lattice="16.28999089631971 0.0 0.0 0.0 16.28999089631971 0.0 0.0 0.0 34.45770212530097" Properties=species:S:1:pos:R:3:initial_magmoms:R:1 pbc="T T T"
Si       1.35812988      -1.33961630      -1.50390725       0.00000000
Si      -1.35870003       1.35812988      -1.52478863       0.00000000
Si       0.75460167       1.74672783       1.56696488       0.00000000
Si      -1.95074379      -0.95848731       1.24006448       0.00000000
Si      -1.12793589       3.29914854       1.19892196       0.00000000
Si      -2.86604631       2.49116454      -0.15795419       0.00000000
Si       2.67587685       2.70479160       0.04575985       0.00000000
Si      -2.77573455      -2.75793677      -0.08104456       0.00000000
Si       2.77307928      -2.76306812      -0.04289986       0.00000000
Si      -0.01835883      -2.69154993      -2.88759151       0.00000000
