10
Lattice="16.28999089631971 0.0 0.0 0.0 16.28999089631971 0.0 0.0 0.0 34.45770212530097" Properties=species:S:1:pos:R:3:initial_magmoms:R:1 pbc="T T T"
Si       1.35474156      -1.35923760      -1.35887470       0.00000000
Si      -1.35936792       1.35669636      -1.35818555       0.00000000
Si      -1.34346888      -1.38056121       1.36421565       0.00000000
Si       1.36140417       1.35873261       1.38416667       0.00000000
Si      -0.21861180       2.49201162       2.82536086       0.00000000
Si      -2.71090035      -2.71443528       0.00017229       0.00000000
Si       2.71407690      -2.71373481       0.00144722       0.00000000
Si       2.71305063      -0.00035838      -2.71557856       0.00000000
Si       2.71368594       2.71650411      -0.00068915       0.00000000
Si      -0.00156384       2.71466334      -2.71606097       0.00000000
