10
Lattice="16.28999089631971 0.0 0.0 0.0 16.28999089631971 0.0 0.0 0.0 34.45770212530097" Properties=species:S:1:pos:R:3:initial_magmoms:R:1 pbc="T T T"
Si      -1.50734628       1.13303466       1.36683443       0.00000000
Si      -1.36743147      -1.33387407      -1.36404336       0.00000000
Si       1.34346888       1.38056121      -1.36421565       0.00000000
Si       1.35870003      -1.35812988       1.52478863       0.00000000
Si       0.23076414       1.94101866       2.72371059       0.00000000
Si      -0.59204376      -2.31661719       2.76485311       0.00000000
Si       2.11330170       0.38859795       3.09175351       0.00000000
Si       2.71682991      -2.69774617       0.02088138       0.00000000
Si      -0.01733256      -2.69287872      -2.72243565       0.00000000
Si       2.69821044       0.02132361      -2.72309035       0.00000000
