10
Lattice="16.28999089631971 0.0 0.0 0.0 16.28999089631971 0.0 0.0 0.0 34.45770212530097" Properties=species:S:1:pos:R:3:initial_magmoms:R:1 pbc="T T T"
Si      -1.73811042      -0.80798400      -1.35687615       0.00000000
Si       1.88253756      -1.55242071       0.36804292       0.00000000
Si       0.89409294       1.93155417      -1.26256537       0.00000000
Si      -0.23076414      -1.94101866      -2.72371059       0.00000000
Si       1.12793589      -3.29914854      -1.19892196       0.00000000
Si       2.47410891       0.79827516      -2.70375957       0.00000000
Si      -3.62773413      -0.38211453       1.33909597       0.00000000
Si       1.05824727      -2.46700647       2.94458458       0.00000000
Si       2.22552351       3.31713270       0.17876666       0.00000000
Si      -2.37874725      -2.04610545       2.49460120       0.00000000
