10
Lattice="16.28999089631971 0.0 0.0 0.0 16.28999089631971 0.0 0.0 0.0 34.45770212530097" Properties=species:S:1:pos:R:3:initial_magmoms:R:1 pbc="T T T"
Si      -1.84474476      -1.03866669       0.96829643       0.00000000
Si      -0.79218270       1.56144537      -1.54859891       0.00000000
Si       1.69093458       0.69607170       1.48319816       0.00000000
Si       0.84030336      -1.46826657      -1.64284078       0.00000000
Si      -2.36646459       0.05932818      -2.51699872       0.00000000
Si       3.20100129       1.31549895      -0.22800674       0.00000000
Si       3.08669436      -0.75512295      -1.44812020       0.00000000
Si      -1.58576634      -0.18223623       3.14767839       0.00000000
Si      -3.61224234      -0.45084204      -0.53126915       0.00000000
Si       1.93479588      -1.21635801       2.90726687       0.00000000
