10
Lattice="16.28999089631971 0.0 0.0 0.0 16.28999089631971 0.0 0.0 0.0 34.45770212530097" Properties=species:S:1:pos:R:3:initial_magmoms:R:1 pbc="T T T"
Si       1.73783349       0.96415623       1.23731751       0.00000000
Si       1.05160095      -1.43493723      -1.56812821       0.00000000
Si      -1.10470635      -1.70429238       1.24038769       0.00000000
Si      -1.85622921       1.64353068      -0.11245594       0.00000000
Si       0.22517667       2.26782864       2.59189533       0.00000000
Si      -2.51838513      -0.44916417       2.59623700       0.00000000
Si       2.17986264       1.85217300      -2.28484882       0.00000000
Si      -1.71160659       2.18271339      -2.52178011       0.00000000
Si       0.95545737      -0.35088660      -3.63266259       0.00000000
Si      -0.56042487      -2.58615153      -2.78197036       0.00000000
