10
Lattice="16.28999089631971 0.0 0.0 0.0 16.28999089631971 0.0 0.0 0.0 34.45770212530097" Properties=species:S:1:pos:R:3:initial_magmoms:R:1 pbc="T T T"
Si      -0.51401466      -1.23663906       1.89682865       0.00000000
Si       0.67127832      -1.56043539      -1.65352268       0.00000000
Si      -1.57690458       1.54608390      -0.87667335       0.00000000
Si       1.52502093       1.61240049       0.86237339       0.00000000
Si      -0.02800251       2.77096158      -2.18517086       0.00000000
Si      -2.60736111       0.11029959       2.51183006       0.00000000
Si       1.76103045      -1.94613372       2.57805780       0.00000000
Si       3.27691269       0.28913121       1.72736557       0.00000000
Si      -0.68175279      -3.48478938      -1.16567026       0.00000000
Si      -0.95988825      -3.45708009       1.17642107       0.00000000
