10
Lattice="16.28999089631971 0.0 0.0 0.0 16.28999089631971 0.0 0.0 0.0 34.45770212530097" Properties=species:S:1:pos:R:3:initial_magmoms:R:1 pbc="T T T"
Si      -1.36234899      -1.35158130      -1.35780996       0.00000000
Si      -1.35482301       1.35889551       1.36011518       0.00000000
Si       1.36023129      -1.35643572       1.35946048       0.00000000
Si       1.38121281       1.36541151      -1.36215163       0.00000000
Si       0.05132979      -2.60670951      -2.71365927       0.00000000
Si      -0.09283671       2.61977409      -2.72321095       0.00000000
Si      -2.70961344       2.71665072       0.00106819       0.00000000
Si       2.71448415      -2.71265967       0.00251541       0.00000000
Si      -2.71204065      -2.71528236       0.00434167       0.00000000
Si      -2.71218726       0.00029322       2.71702579       0.00000000
