10
Lattice="16.28999089631971 0.0 0.0 0.0 16.28999089631971 0.0 0.0 0.0 34.45770212530097" Properties=species:S:1:pos:R:3:initial_magmoms:R:1 pbc="T T T"
Si      -1.35635427      -1.35702216      -1.35753085       0.00000000
Si      -1.35664749       1.35837423       1.35839229       0.00000000
Si       1.35887922       1.35801585      -1.35780651       0.00000000
Si       1.36164852      -1.35707103       1.36218264       0.00000000
Si      -2.69557146      -0.02041137       2.70792895       0.00000000
Si      -2.71290402      -0.00011403      -2.71464821       0.00000000
Si      -2.71459818       2.71350675      -0.00020675       0.00000000
Si       0.00177561      -2.71489140      -2.71495833       0.00000000
Si       0.00148239       2.71567332      -2.71495833       0.00000000
Si       2.71658556       2.71463076       0.00006892       0.00000000
