10
Lattice="16.28999089631971 0.0 0.0 0.0 16.28999089631971 0.0 0.0 0.0 34.45770212530097" Properties=species:S:1:pos:R:3:initial_magmoms:R:1 pbc="T T T"
Si       0.08847099       2.35914616       0.02029560       0.00000000
Si      -2.28762099      -0.63589644      -0.11960275       0.00000000
Si       0.93559986      -0.56982420      -2.16177407       0.00000000
Si       1.77021801      -0.17614377       1.64742366       0.00000000
Si      -0.89347392       0.45737433      -3.31479834       0.00000000
Si       3.02176242       0.40899303      -1.72522919       0.00000000
Si       2.02582440       2.53270145      -1.34436800       0.00000000
Si       3.50417448      -0.90008766       0.21725593       0.00000000
Si      -2.77180866      -0.65018277      -2.45259723       0.00000000
Si       1.04743071      -1.60062282       3.34811896       0.00000000
