10
Lattice="16.28999089631971 0.0 0.0 0.0 16.28999089631971 0.0 0.0 0.0 34.45770212530097" Properties=species:S:1:pos:R:3:initial_magmoms:R:1 pbc="T T T"
Si      -1.70131131       1.53635877       0.52551471       0.00000000
Si      -0.80060463      -1.52966358       1.59976863       0.00000000
Si       2.28762099       0.63589644       0.11960275       0.00000000
Si      -0.48418767      -0.01428633      -2.33299448       0.00000000
Si       1.39414707       1.09327077      -3.19519559       0.00000000
Si      -0.74269368      -0.23288184       3.62626168       0.00000000
Si      -1.78328259       1.72882512       2.83142542       0.00000000
Si      -3.62032218       0.87413769      -0.69938837       0.00000000
Si       3.22322085       0.06607224      -2.04217132       0.00000000
Si       2.37609198       2.99504260       0.13989835       0.00000000
