10
Lattice="16.28999089631971 0.0 0.0 0.0 16.28999089631971 0.0 0.0 0.0 34.45770212530097" Properties=species:S:1:pos:R:3:initial_magmoms:R:1 pbc="T T T"
Si       0.55047168      -0.53633522      -2.20057346       0.00000000
Si       1.03869927       1.76966252       1.13203952       0.00000000
Si      -1.44862083      -1.48184496       1.12394196       0.00000000
Si       1.73848576      -0.14734794       2.67143822       0.00000000
Si      -2.38308039       0.06631007       2.81209464       0.00000000
Si      -0.06965604      -3.56106798       1.31342497       0.00000000
Si      -1.30166874      -1.29416787      -3.51623818       0.00000000
Si       2.22746269      -2.34554076      -2.30053531       0.00000000
Si       1.38999363       1.41996509      -3.49439198       0.00000000
Si       1.14223851      -2.49654906       2.95543876       0.00000000
