10
Lattice="16.28999089631971 0.0 0.0 0.0 16.28999089631971 0.0 0.0 0.0 34.45770212530097" Properties=species:S:1:pos:R:3:initial_magmoms:R:1 pbc="T T T"
Si       1.33426503       1.37797110      -1.37048695       0.00000000
Si      -1.38020283      -1.34079732      -1.37196863       0.00000000
Si      -1.27399203       1.36547667       1.46710640       0.00000000
Si       1.34589609      -1.45803645       1.33768320       0.00000000
Si      -0.42997455      -2.36705103       2.38926394       0.00000000
Si      -2.72622761      -2.69309701      -0.01326622       0.00000000
Si       2.69584839       0.01767465      -2.73011972       0.00000000
Si      -0.01995525      -2.69711901      -2.73039538       0.00000000
Si      -2.70300133       2.72588715      -0.00920021       0.00000000
Si       2.70451467       2.73022029       0.01292165       0.00000000
