10
Lattice="16.28999089631971 0.0 0.0 0.0 16.28999089631971 0.0 0.0 0.0 34.45770212530097" Properties=species:S:1:pos:R:3:initial_magmoms:R:1 pbc="T T T"
Si      -0.77473611      -1.91757246      -1.11718824       0.00000000
Si       1.94768127       0.94856670      -0.91254384       0.00000000
Si      -1.68858882       1.52280549      -0.60993613       0.00000000
Si       0.80394408      -0.38705040       2.18403375       0.00000000
Si       2.02888692       2.73430908       0.57813165       0.00000000
Si       1.92692781       1.59923817       2.61130950       0.00000000
Si      -1.70355933       1.06473069      -3.00902052       0.00000000
Si      -2.33515521      -2.91479318       0.37097183       0.00000000
Si      -3.76106778       0.84082464       0.28910028       0.00000000
Si       1.03219956      -3.00103244      -2.22321218       0.00000000
