10
Lattice="16.28999089631971 0.0 0.0 0.0 16.28999089631971 0.0 0.0 0.0 34.45770212530097" Properties=species:S:1:pos:R:3:initial_magmoms:R:1 pbc="T T T"
Si      -1.35645201      -1.35622395      -1.35722073       0.00000000
Si      -1.35474156       1.35923760       1.35887470       0.00000000
Si       1.35830907       1.35887922      -1.35670386       0.00000000
Si       1.35933534      -1.35449721       1.36032192       0.00000000
Si      -2.69821044      -0.02132361       2.72309035       0.00000000
Si       0.00050499      -2.71343507      -2.71444146       0.00000000
Si       2.71393029      -2.71396613       0.00065470       0.00000000
Si      -2.71420722       0.00146610      -2.71457929       0.00000000
Si      -2.71554300      -2.71420233       0.00065470       0.00000000
Si      -2.71410948       2.71593396       0.00068915       0.00000000
