10
Lattice="16.28999089631971 0.0 0.0 0.0 16.28999089631971 0.0 0.0 0.0 34.45770212530097" Properties=species:S:1:pos:R:3:initial_magmoms:R:1 pbc="T T T"
Si      -1.19457828       1.43466030      -1.36226879       0.00000000
Si       1.34200278       1.37213928       1.35418500       0.00000000
Si      -1.37396376      -1.33973847       1.35697608       0.00000000
Si       1.43886312      -1.19563713      -1.48851154       0.00000000
Si       0.55327356       2.24280720      -2.80956342       0.00000000
Si       2.35729332       0.55113957      -2.83916260       0.00000000
Si       2.68837128      -2.67856470      -0.00945520       0.00000000
Si      -0.01479132      -2.69798238       2.71354211       0.00000000
Si      -2.71902906      -2.69254152      -0.01373140       0.00000000
Si       2.70259360       0.01754433       2.71295633       0.00000000
