10
Lattice="16.28999089631971 0.0 0.0 0.0 16.28999089631971 0.0 0.0 0.0 34.45770212530097" Properties=species:S:1:pos:R:3:initial_magmoms:R:1 pbc="T T T"
Si      -1.34268696      -1.34389242      -1.36776479       0.00000000
Si       1.37200896       1.36826226      -1.36721347       0.00000000
Si       1.34530965      -1.43782056       1.34178367       0.00000000
Si      -1.40238981       1.28001933       1.45818185       0.00000000
Si       2.24368590       0.28623159       2.60896637       0.00000000
Si       0.57378267       2.15347284       2.79000724       0.00000000
Si      -2.69496873      -2.70166392       0.01709103       0.00000000
Si      -2.70130554       2.71940373       0.00723612       0.00000000
Si      -2.70016524       0.01019754      -2.72619154       0.00000000
Si       0.01295055      -2.70259245      -2.72584697       0.00000000
