10
Lattice="16.28999089631971 0.0 0.0 0.0 16.28999089631971 0.0 0.0 0.0 34.45770212530097" Properties=species:S:1:pos:R:3:initial_magmoms:R:1 pbc="T T T"
Si      -0.47527704       1.98317718       1.21652985       0.00000000
Si      -0.47794860      -1.95144426       1.28031110       0.00000000
Si       2.15821323      -0.17645328      -1.02018976       0.00000000
Si      -0.54488421       0.64042506      -2.29402280       0.00000000
Si      -2.72697858      -0.29250324      -1.77357338       0.00000000
Si       2.13407145       2.19058146      -1.60776282       0.00000000
Si       1.45775952      -3.15161001       0.31487466       0.00000000
Si       1.29314907      -0.72868428      -3.16694026       0.00000000
Si      -0.41922315      -3.49811460      -1.28989034       0.00000000
Si       1.61088552       2.96199441       1.65307473       0.00000000
