10
Lattice="16.28999089631971 0.0 0.0 0.0 16.28999089631971 0.0 0.0 0.0 34.45770212530097" Properties=species:S:1:pos:R:3:initial_magmoms:R:1 pbc="T T T"
Si       1.19457828      -1.43466030       1.36226879       0.00000000
Si      -1.73783349      -0.96415623      -1.23731751       0.00000000
Si       1.74785184       0.80814690      -1.44729463       0.00000000
Si      -1.51265682       1.30367241       1.35457782       0.00000000
Si       0.44202915       0.88801677      -3.52216632       0.00000000
Si       2.53658106      -0.06252102       2.71645379       0.00000000
Si       2.61099378       2.64759741      -0.12770032       0.00000000
Si       2.63344140      -2.63029743      -0.12624275       0.00000000
Si      -0.68623254      -2.39909346      -2.80544572       0.00000000
Si      -0.17707230       2.65527000       2.72110558       0.00000000
