10
Lattice="16.28999089631971 0.0 0.0 0.0 16.28999089631971 0.0 0.0 0.0 34.45770212530097" Properties=species:S:1:pos:R:3:initial_magmoms:R:1 pbc="T T T"
Si      -1.34200278      -1.37213928      -1.35418500       0.00000000
Si       1.36059082      -1.35459495       1.35877133       0.00000000
Si      -1.35695700       1.36080144       1.36004626       0.00000000
Si       1.36840887       1.37466423      -1.36292004       0.00000000
Si      -2.53658106       0.06252102      -2.71645379       0.00000000
Si       0.09686034      -2.56777641      -2.84269654       0.00000000
Si      -2.71596654      -2.71187775       0.00279108       0.00000000
Si      -2.71292031       0.00151497       2.71706025       0.00000000
Si       0.00188964      -2.71337643       2.71688796       0.00000000
Si      -2.71365336       2.71779102       0.00465179       0.00000000
