10
Lattice="16.28999089631971 0.0 0.0 0.0 16.28999089631971 0.0 0.0 0.0 34.45770212530097" Properties=species:S:1:pos:R:3:initial_magmoms:R:1 pbc="T T T"
Si       1.34477208       1.34517933       1.35294797       0.00000000
Si      -1.35681039       1.35381303      -1.35708290       0.00000000
Si       1.35694071      -1.36005210      -1.35708290       0.00000000
Si      -1.35752715      -1.36787130       1.37544886       0.00000000
Si       2.64508875      -0.07278372       2.68087964       0.00000000
Si       0.00074934       2.71219322      -2.71485495       0.00000000
Si      -2.71572219       2.71207831       0.00254987       0.00000000
Si      -2.71451673      -0.00280188      -2.71495833       0.00000000
Si      -2.71174743      -2.71788876       0.00503083       0.00000000
Si       2.71511612      -0.00268785      -2.71492387       0.00000000
