10
Lattice="16.28999089631971 0.0 0.0 0.0 16.28999089631971 0.0 0.0 0.0 34.45770212530097" Properties=species:S:1:pos:R:3:initial_magmoms:R:1 pbc="T T T"
Si       2.08616256       0.97881723       0.43654487       0.00000000
Si       0.47527704      -1.98317718      -1.21652985       0.00000000
Si      -1.82907378       1.02719853      -1.15302427       0.00000000
Si      -0.93559986       0.56982420       2.16177407       0.00000000
Si       1.09022454       3.10252565       0.81740607       0.00000000
Si       2.56857462      -0.33026346       2.37903000       0.00000000
Si      -3.70740852      -0.08035857      -0.29082317       0.00000000
Si      -0.84712887       2.92897036       2.18206966       0.00000000
Si      -0.06960717      -1.34275212      -3.51055265       0.00000000
Si      -3.22322085      -0.06607224       2.04217132       0.00000000
