10
Lattice="16.28999089631971 0.0 0.0 0.0 16.28999089631971 0.0 0.0 0.0 34.45770212530097" Properties=species:S:1:pos:R:3:initial_magmoms:R:1 pbc="T T T"
Si       2.07127350       0.98020188       0.60969492       0.00000000
Si       0.47366433      -2.26057959       0.54629271       0.00000000
Si      -0.17842437       0.56886309      -2.32052079       0.00000000
Si      -1.94759412       0.81653625       1.19340872       0.00000000
Si       1.30375386       2.85824340       1.75558645       0.00000000
Si       0.47964276      -2.32495767       2.96935968       0.00000000
Si      -1.13399088      -1.37327958      -3.40824768       0.00000000
Si       2.40789006      -3.00016188      -0.68505396       0.00000000
Si      -1.50370872       0.99787653       3.49218669       0.00000000
Si       2.00700945       1.24318764      -3.14626562       0.00000000
