10
Lattice="16.28999089631971 0.0 0.0 0.0 16.28999089631971 0.0 0.0 0.0 34.45770212530097" Properties=species:S:1:pos:R:3:initial_magmoms:R:1 pbc="T T T"
Si       1.35654975       1.35731538       1.35742748       0.00000000
Si      -1.35886945      -1.35770634       1.35735856       0.00000000
Si       1.35710361      -1.35668007      -1.36032192       0.00000000
Si      -1.35837749       1.35580041      -1.36290625       0.00000000
Si       2.71337643       0.00017919       2.71392459       0.00000000
Si      -0.00135207      -2.71463076       2.71395905       0.00000000
Si      -2.71356737      -2.71508688       0.00024120       0.00000000
Si       2.71378368      -2.71495656       0.00055132       0.00000000
Si      -0.00120546       2.71490769       2.71447592       0.00000000
Si       2.71505430       2.71461447      -0.00058578       0.00000000
