10
Lattice="16.28999089631971 0.0 0.0 0.0 16.28999089631971 0.0 0.0 0.0 34.45770212530097" Properties=species:S:1:pos:R:3:initial_magmoms:R:1 pbc="T T T"
Si      -1.35672568       1.35700587      -1.35315472       0.00000000
Si      -1.35585905      -1.35797675       1.35766868       0.00000000
Si       1.35648459      -1.35610177      -1.36063204       0.00000000
Si       1.35873261       1.35734796       1.35739302       0.00000000
Si      -2.69168534      -0.00449604      -2.70616816       0.00000000
Si      -2.71057001       2.71440270       0.00062024       0.00000000
Si      -2.71343485      -0.00060273       2.71475158       0.00000000
Si       0.00164529       2.71485882       2.71433809       0.00000000
Si      -2.71285184      -2.71662411       0.00079253       0.00000000
Si       0.00144981      -2.71507457       2.71478604       0.00000000
