10
Lattice="16.28999089631971 0.0 0.0 0.0 16.28999089631971 0.0 0.0 0.0 34.45770212530097" Properties=species:S:1:pos:R:3:initial_magmoms:R:1 pbc="T T T"
Si      -0.81962320       0.37991538      -2.13693005       0.00000000
Si      -0.71758916      -1.35700587       1.82963609       0.00000000
Si       0.20763234       2.31174648       0.57134348       0.00000000
Si       1.21569012      -2.30034348       0.32748618       0.00000000
Si      -2.25064988      -1.75290174      -0.10468256       0.00000000
Si       0.41264199       2.16702612       2.90309748       0.00000000
Si      -1.55837405       0.64870038       3.25108601       0.00000000
Si       0.93551841       1.41431409      -3.38657377       0.00000000
Si       3.18039444      -1.71807372       1.40539262       0.00000000
Si      -2.48952644       2.24715663      -1.95588918       0.00000000
