10
Lattice="16.28999089631971 0.0 0.0 0.0 16.28999089631971 0.0 0.0 0.0 34.45770212530097" Properties=species:S:1:pos:R:3:initial_magmoms:R:1 pbc="T T T"
Si       0.54520447       0.33723558       2.32751571       0.00000000
Si      -1.51684304       1.53888372      -1.10071745       0.00000000
Si       1.97101604       1.51832574      -0.34798853       0.00000000
Si       0.84078489      -2.00570625      -1.42144992       0.00000000
Si      -2.21729675      -1.43627301       0.23434696       0.00000000
Si       1.67452175      -1.78183278       2.65682815       0.00000000
Si       1.76600639       1.66304610      -2.67974253       0.00000000
Si       1.55837405      -0.64870038      -3.25108601       0.00000000
Si      -1.35500189       0.99162117       3.63742598       0.00000000
Si      -3.67505627       1.71533700      -0.08052769       0.00000000
