10
Lattice="16.28999089631971 0.0 0.0 0.0 16.28999089631971 0.0 0.0 0.0 34.45770212530097" Properties=species:S:1:pos:R:3:initial_magmoms:R:1 pbc="T T T"
Si       1.35585905       1.35797675      -1.35766868       0.00000000
Si       1.35730886      -1.35709782       1.35711736       0.00000000
Si      -1.35757579       1.35737402       1.35708290       0.00000000
Si      -1.35699279      -1.35864736      -1.35687615       0.00000000
Si      -0.00086663       2.71498262      -2.71082340       0.00000000
Si      -0.00174140      -2.71365077      -2.71292532       0.00000000
Si      -0.00059296       2.71350023       2.71426917       0.00000000
Si       2.71457537      -2.71443269       0.00027566       0.00000000
Si       2.71424957       0.00075911       2.71544073       0.00000000
Si      -2.71483994      -2.71505171      -0.00003446       0.00000000
