10
Lattice="16.28999089631971 0.0 0.0 0.0 16.28999089631971 0.0 0.0 0.0 34.45770212530097" Properties=species:S:1:pos:R:3:initial_magmoms:R:1 pbc="T T T"
Si      -1.42665655       0.78542235       1.78942393       0.00000000
Si      -0.81682411      -1.52203986      -1.72926075       0.00000000
Si       1.88033466      -1.45745001       0.79797191       0.00000000
Si       0.87046218       2.00094957      -1.82453635       0.00000000
Si      -2.26757893      -2.13384339       0.23024649       0.00000000
Si      -1.40251477      -1.58161239       2.37699699       0.00000000
Si      -0.08929642       0.33897861      -3.20660109       0.00000000
Si       2.80897869       1.73187135      -0.13462632       0.00000000
Si       3.85362381      -0.46454193      -0.09782547       0.00000000
Si      -0.21476200       1.84994127       3.43143773       0.00000000
