10
Lattice="16.28999089631971 0.0 0.0 0.0 16.28999089631971 0.0 0.0 0.0 34.45770212530097" Properties=species:S:1:pos:R:3:initial_magmoms:R:1 pbc="T T T"
Si      -1.33143057      -1.19926980       1.54384375       0.00000000
Si      -0.40588164       2.22476181       0.74004848       0.00000000
Si       2.36104002      -0.26507088      -0.26663385       0.00000000
Si      -0.34707474      -0.15622110      -2.37248303       0.00000000
Si       1.06178220       1.91710561      -2.42572021       0.00000000
Si       0.69757038      -2.35263438      -2.33568219       0.00000000
Si      -3.37081544      -0.03815118       1.19358101       0.00000000
Si      -2.77456819       2.31104994       0.90958047       0.00000000
Si      -1.07070912      -3.49026282       0.89186920       0.00000000
Si       0.33001911       3.71679875      -0.95537478       0.00000000
