10
Lattice="16.28999089631971 0.0 0.0 0.0 16.28999089631971 0.0 0.0 0.0 34.45770212530097" Properties=species:S:1:pos:R:3:initial_magmoms:R:1 pbc="T T T"
Si       1.69095087      -1.52614494      -0.62485632       0.00000000
Si       0.25098003       1.71788217      -1.60796957       0.00000000
Si      -1.64729367      -1.69650576      -0.50077406       0.00000000
Si       0.01918962       1.14585882       2.14812881       0.00000000
Si       2.55621051       1.38699969      -2.06036499       0.00000000
Si      -3.37002796      -1.27905822       0.96216295       0.00000000
Si       3.60996174      -0.86392386       0.60004676       0.00000000
Si      -2.25424278       1.94990390       2.41338435       0.00000000
Si       0.84989817      -3.74619501      -0.45039688       0.00000000
Si       1.29235086      -0.16822683       3.67081552       0.00000000
