10
Lattice="16.28999089631971 0.0 0.0 0.0 16.28999089631971 0.0 0.0 0.0 34.46413024517268" Properties=species:S:1:pos:R:3:initial_magmoms:R:1 pbc="T T T"
Si      -1.26974264       1.42924550       1.34891303       0.00000000
Si       1.35932394       1.37382692      -1.35922267       0.00000000
Si       1.45486479      -1.32036707       1.34265089       0.00000000
Si      -1.90374944      -0.89167876      -1.29801499       0.00000000
Si      -2.61757724       0.05195207       2.72389818       0.00000000
Si       0.09959543      -2.66435723       2.72358800       0.00000000
Si      -0.96435985      -1.92918953      -3.16683285       0.00000000
Si       2.59767345       0.07521582      -2.85955049       0.00000000
Si       2.79388650      -2.66256533      -0.21991574       0.00000000
Si       0.09554574       2.76608435       2.72389818       0.00000000
