10
Lattice="16.28999089631971 0.0 0.0 0.0 16.28999089631971 0.0 0.0 0.0 34.46413024517268" Properties=species:S:1:pos:R:3:initial_magmoms:R:1 pbc="T T T"
Si      -1.60657586      -1.15250121      -1.36095480       0.00000000
Si       1.11734739       1.64820591      -1.39293753       0.00000000
Si      -0.98009437       1.70774586       1.48540484       0.00000000
Si       1.90439874      -1.74742830       0.32713371       0.00000000
Si       1.25926587       2.42642808       1.94794819       0.00000000
Si      -0.17815721      -2.38929014      -2.73865918       0.00000000
Si       2.54335770       0.34065648      -2.72394298       0.00000000
Si       2.22697332      -1.18431558       2.82392348       0.00000000
Si       1.08361080      -3.56873501      -1.08727499       0.00000000
Si      -2.72529161      -2.89639621       0.01757672       0.00000000
