10
Lattice="16.28999089631971 0.0 0.0 0.0 16.28999089631971 0.0 0.0 0.0 34.46413024517268" Properties=species:S:1:pos:R:3:initial_magmoms:R:1 pbc="T T T"
Si      -1.35707103      -1.35593291      -1.35712928       0.00000000
Si      -1.35684297       1.35745222       1.35781856       0.00000000
Si       1.35830907       1.35904864      -1.35675017       0.00000000
Si       1.35871632      -1.35401237       1.36353961       0.00000000
Si      -2.70281399      -0.01133458       2.71425856       0.00000000
Si      -2.71361589       0.00140746      -2.71477552       0.00000000
Si       0.00131949      -2.71350742      -2.71501677       0.00000000
Si      -2.71406061      -2.71583689      -0.00034464       0.00000000
Si       0.00158013       2.71587532      -2.71467213       0.00000000
Si       2.71619460       0.00115985      -2.71505123       0.00000000
