10
Lattice="16.28999089631971 0.0 0.0 0.0 16.28999089631971 0.0 0.0 0.0 34.46413024517268" Properties=species:S:1:pos:R:3:initial_magmoms:R:1 pbc="T T T"
Si      -1.34530965      -1.35975785      -1.39445395       0.00000000
Si       1.36792017       1.35602358      -1.39445395       0.00000000
Si       1.24146090      -1.54474390       1.39707323       0.00000000
Si      -1.40339979       1.43617038       1.58817694       0.00000000
Si      -2.68532505       2.71286655      -0.02901881       0.00000000
Si      -2.72240109      -2.70196921      -0.01516423       0.00000000
Si       2.72761389       2.72275458      -0.00933978       0.00000000
Si      -2.70402597      -0.00574548      -2.75799356       0.00000000
Si       2.71580364      -2.74645720      -0.02684757       0.00000000
Si       0.01166364       2.71065111      -2.75692518       0.00000000
