10
Lattice="16.28999089631971 0.0 0.0 0.0 16.28999089631971 0.0 0.0 0.0 34.46413024517268" Properties=species:S:1:pos:R:3:initial_magmoms:R:1 pbc="T T T"
Si      -1.28192526       1.27669617      -1.61719575       0.00000000
Si      -1.92088422      -0.81138861       1.43388094       0.00000000
Si       1.40339979      -1.43617038      -1.58817694       0.00000000
Si       1.62746874       1.30411224       1.51325188       0.00000000
Si      -2.70793557       2.58424560      -0.28619030       0.00000000
Si      -2.74167216      -2.63269532       0.01947224       0.00000000
Si       0.05696613       2.63054178      -2.98876551       0.00000000
Si       2.64486069      -2.98091429      -0.19110371       0.00000000
Si      -2.65746915      -0.08446365      -2.98835194       0.00000000
Si       2.87086815       2.82346425      -0.04990409       0.00000000
