10
Lattice="16.28999089631971 0.0 0.0 0.0 16.28999089631971 0.0 0.0 0.0 34.46413024517268" Properties=species:S:1:pos:R:3:initial_magmoms:R:1 pbc="T T T"
Si       1.49208255       1.31430978      -1.38993023       0.00000000
Si      -1.23509151      -1.53371979      -1.44372877       0.00000000
Si       1.38201102      -1.29166668       1.55723847       0.00000000
Si      -1.32748839       1.41090948       1.57068983       0.00000000
Si      -2.67563250      -2.69474067       0.19025934       0.00000000
Si       2.67959097       2.70159876       0.14516300       0.00000000
Si      -2.71601541       2.79448434       0.23787501       0.00000000
Si       2.78795205      -2.74574466       0.07187154       0.00000000
Si       0.02318067      -2.64648969       2.95370513       0.00000000
Si       0.28759995       2.76587910      -2.84793607       0.00000000
