10
Lattice="16.28999089631971 0.0 0.0 0.0 16.28999089631971 0.0 0.0 0.0 34.46413024517268" Properties=species:S:1:pos:R:3:initial_magmoms:R:1 pbc="T T T"
Si       1.35733167       1.35676152      -1.35709482       0.00000000
Si      -1.35666378       1.35747828       1.35706035       0.00000000
Si       1.35733167      -1.35744570       1.35764624       0.00000000
Si      -1.35840681      -1.35759231      -1.35692249       0.00000000
Si      -2.71412577       0.00063531       2.71398285       0.00000000
Si       2.71461447       0.00004887       2.71498231       0.00000000
Si      -2.71410948      -0.00128691      -2.71591284       0.00000000
Si       2.71536381       2.71476108       0.00031018       0.00000000
Si      -2.71487511      -2.71539639       0.00010339       0.00000000
Si      -0.00087966       2.71630863       2.71412070       0.00000000
