10
Lattice="16.28999089631971 0.0 0.0 0.0 16.28999089631971 0.0 0.0 0.0 34.46413024517268" Properties=species:S:1:pos:R:3:initial_magmoms:R:1 pbc="T T T"
Si      -1.35809730       1.35606105       1.35633660       0.00000000
Si      -1.35738054      -1.35734796      -1.35781856       0.00000000
Si       1.35625653      -1.35462753       1.36247122       0.00000000
Si       1.35809730       1.35742941      -1.35819767       0.00000000
Si      -2.69698869       0.00221544       2.72790636       0.00000000
Si      -2.71336014       2.71551042      -0.00186106       0.00000000
Si      -2.71410948      -0.00052128      -2.71574052       0.00000000
Si       2.71538010       2.71492398      -0.00086160       0.00000000
Si       0.00076563       2.71487511      -2.71584391       0.00000000
Si       2.71617831      -2.71515693      -0.00130964       0.00000000
