10
Lattice="16.28999089631971 0.0 0.0 0.0 16.28999089631971 0.0 0.0 0.0 34.46413024517268" Properties=species:S:1:pos:R:3:initial_magmoms:R:1 pbc="T T T"
Si       1.33889139       1.35384561      -1.37156976       0.00000000
Si      -1.42601031       1.30754943       1.33100545       0.00000000
Si      -1.37554389      -1.36115982      -1.37115619       0.00000000
Si       1.28192526      -1.27669617       1.61719575       0.00000000
Si      -2.54335770      -0.34065648       2.72394298       0.00000000
Si      -0.63895896      -2.08808478       3.05107669       0.00000000
Si       2.68532505      -2.71286655       0.02901881       0.00000000
Si       2.70316260       2.69786835       0.00885729       0.00000000
Si       2.69698869      -0.00221544      -2.72790636       0.00000000
Si      -2.74404561       2.69798238      -0.01898975       0.00000000
