10
Lattice="16.28999089631971 0.0 0.0 0.0 16.28999089631971 0.0 0.0 0.0 34.46413024517268" Properties=species:S:1:pos:R:3:initial_magmoms:R:1 pbc="T T T"
Si       0.80803287       0.30625200       2.16062646       0.00000000
Si      -0.92675439       2.09797281      -0.54191429       0.00000000
Si       1.70831601      -0.99722493      -1.31484177       0.00000000
Si      -1.60759494      -1.75773987       0.18104018       0.00000000
Si       0.15550434      -1.84210578      -3.05155919       0.00000000
Si       2.69110800      -2.38575195       0.40819339       0.00000000
Si       1.77231942      -1.81804545       2.61338199       0.00000000
Si       0.90290583       3.59187984      -0.66843218       0.00000000
Si      -1.94694822       1.76339250      -2.73410991       0.00000000
Si      -3.73361913      -0.82821618       0.03301666       0.00000000
