10
Lattice="16.28999089631971 0.0 0.0 0.0 16.28999089631971 0.0 0.0 0.0 34.46413024517268" Properties=species:S:1:pos:R:3:initial_magmoms:R:1 pbc="T T T"
Si      -2.12602419       0.92952369      -0.14802352       0.00000000
Si       1.60759494       1.75773987      -0.18104018       0.00000000
Si       0.00379557      -1.59827706       1.82994295       0.00000000
Si      -0.23333796      -0.93617001      -2.29744913       0.00000000
Si      -3.37246983      -1.16150958      -0.02691650       0.00000000
Si       1.76309928      -0.08436591      -3.23259937       0.00000000
Si       3.31591095       0.76051494      -1.49588195       0.00000000
Si       2.41562781       2.06399187       1.97958628       0.00000000
Si      -2.20848417       2.29117221      -2.12319839       0.00000000
Si      -2.53296468       2.59589295       1.41427084       0.00000000
