10
Lattice="16.28999089631971 0.0 0.0 0.0 16.28999089631971 0.0 0.0 0.0 34.46413024517268" Properties=species:S:1:pos:R:3:initial_magmoms:R:1 pbc="T T T"
Si      -0.62850078      -2.16984429      -0.69190227       0.00000000
Si      -1.95163974       0.13571199       1.34344701       0.00000000
Si       1.88537202      -0.18881739       1.49712265       0.00000000
Si      -0.00379557       1.59827706      -1.82994295       0.00000000
Si      -1.40234094      -1.26341982       3.16418803       0.00000000
Si      -2.34369117      -1.70082261      -2.28376687       0.00000000
Si       3.37611879       1.53797148       0.60239887       0.00000000
Si       0.81761139      -0.31245849       3.66205713       0.00000000
Si      -2.12981976       2.52780075      -1.97796647       0.00000000
Si      -3.37626540       0.43676748      -1.85685945       0.00000000
