10
Lattice="16.28999089631971 0.0 0.0 0.0 16.28999089631971 0.0 0.0 0.0 34.46413024517268" Properties=species:S:1:pos:R:3:initial_magmoms:R:1 pbc="T T T"
Si      -0.01506825      -2.19634975       0.78409387       0.00000000
Si      -0.54929880       1.39913181      -1.82074102       0.00000000
Si      -2.06946857       0.52864308       1.16754199       0.00000000
Si       2.21995233       0.95096133       0.49786910       0.00000000
Si       1.00763424       2.72218932       1.31084393       0.00000000
Si      -0.55490256       3.25536102      -0.38258652       0.00000000
Si       0.16931826      -1.69547949       3.10732218       0.00000000
Si      -1.38373776       0.06314004       3.38251842       0.00000000
Si       1.40234094       1.26341982      -3.16418803       0.00000000
Si       0.51803829      -2.86587706      -2.44492123       0.00000000
