10
Lattice="16.28999089631971 0.0 0.0 0.0 16.28999089631971 0.0 0.0 0.0 34.46413024517268" Properties=species:S:1:pos:R:3:initial_magmoms:R:1 pbc="T T T"
Si       1.23509151       1.53371979       1.44372877       0.00000000
Si      -1.44054099      -1.16102088       1.63398810       0.00000000
Si      -1.78469982      -0.00855225      -1.72324194       0.00000000
Si       1.58895918      -1.43257518      -1.29857469       0.00000000
Si      -0.41839236      -2.21656401      -2.52470574       0.00000000
Si      -2.91143025      -2.50437573       0.31393394       0.00000000
Si      -0.78263676       0.06761979      -3.79091859       0.00000000
Si      -0.08324190      -2.48031540       3.03021696       0.00000000
Si       2.72717406       2.84802957       0.05379854       0.00000000
Si       2.61710253       0.24205311       3.00096724       0.00000000
