10
Lattice="16.28999089631971 0.0 0.0 0.0 16.28999089631971 0.0 0.0 0.0 34.46413024517268" Properties=species:S:1:pos:R:3:initial_magmoms:R:1 pbc="T T T"
Si       1.35725022       1.35736425      -1.35657785       0.00000000
Si      -1.35681039       1.35692442       1.35757731       0.00000000
Si       1.35886293      -1.35799956       1.35699142       0.00000000
Si      -1.35720135      -1.35884664      -1.35816320       0.00000000
Si       2.71464705       0.00083079       2.71405177       0.00000000
Si      -2.71446134       2.71427238      -0.00006893       0.00000000
Si       0.00140094      -2.71484253       2.71391392       0.00000000
Si      -0.00232947       2.71463076      -2.71443088       0.00000000
Si      -2.71409808      -0.00022806       2.71563712       0.00000000
Si       2.71510317       2.71479366       0.00031018       0.00000000
