10
Lattice="16.28999089631971 0.0 0.0 0.0 16.28999089631971 0.0 0.0 0.0 34.46413024517268" Properties=species:S:1:pos:R:3:initial_magmoms:R:1 pbc="T T T"
Si      -1.67573601       0.55366452       1.56005419       0.00000000
Si       0.92675439      -2.09797281       0.54191429       0.00000000
Si       1.82966022       1.49390703      -0.12651789       0.00000000
Si      -1.02019383      -0.33458031      -2.19219562       0.00000000
Si       2.47707369       0.67176702      -2.31723156       0.00000000
Si      -2.88932472      -1.56454047      -1.40024393       0.00000000
Si       1.73478726      -1.79172081       2.70254075       0.00000000
Si      -0.46745784       1.34923554       3.42852806       0.00000000
Si      -2.61531063       2.55352266       0.88703828       0.00000000
Si       1.06766289       3.58383258      -0.89165648       0.00000000
