10
Lattice="16.28999089631971 0.0 0.0 0.0 16.28999089631971 0.0 0.0 0.0 34.46413024517268" Properties=species:S:1:pos:R:3:initial_magmoms:R:1 pbc="T T T"
Si       1.09043631       1.48900374      -1.47782273       0.00000000
Si       0.63086283      -0.04593780       2.29293433       0.00000000
Si      -2.09271114       1.14745131       0.36159786       0.00000000
Si       0.55201923      -1.91519901      -1.37077708       0.00000000
Si       2.71358820      -1.64297682       1.47096437       0.00000000
Si      -1.29138975      -1.92986001      -2.84639411       0.00000000
Si      -3.61864431      -0.64909134       0.29894203       0.00000000
Si       3.29924628       0.78556896      -1.52920878       0.00000000
Si       0.33751251       3.64332366      -0.87542386       0.00000000
Si      -1.97959338       3.03007032      -1.14369280       0.00000000
