10
Lattice="16.28999089631971 0.0 0.0 0.0 16.28999089631971 0.0 0.0 0.0 34.46413024517268" Properties=species:S:1:pos:R:3:initial_magmoms:R:1 pbc="T T T"
Si       1.35438318       1.34837103      -1.36989480       0.00000000
Si      -1.35785295       1.35639155       1.35864570       0.00000000
Si       1.35708732      -1.35915615       1.35888695       0.00000000
Si      -1.36919079      -1.34685720      -1.38411126       0.00000000
Si       2.59848306      -0.15781752      -2.78270091       0.00000000
Si      -2.71267596       2.71465912      -0.00172321       0.00000000
Si      -0.00017919      -2.71425609       2.71673998       0.00000000
Si      -2.71489140       0.00068418       2.71611962       0.00000000
Si      -0.00001629       2.71535145       2.71608516       0.00000000
Si       2.71505430       0.00065160       2.71653319       0.00000000
