10
Lattice="16.28999089631971 0.0 0.0 0.0 16.28999089631971 0.0 0.0 0.0 34.46413024517268" Properties=species:S:1:pos:R:3:initial_magmoms:R:1 pbc="T T T"
Si       1.35726651       1.35509994      -1.35785303       0.00000000
Si      -1.35703845       1.35702216       1.35647446       0.00000000
Si      -1.35785295      -1.35742941      -1.35688803       0.00000000
Si       1.35808101      -1.35830907       1.35647446       0.00000000
Si      -2.71313208       0.00115659       2.71363820       0.00000000
Si       0.00057015       2.71287144       2.71429302       0.00000000
Si      -0.00045612      -2.71396287       2.71374160       0.00000000
Si       2.71336014      -0.00107514       2.71436195       0.00000000
Si      -2.71471221       2.71494027      -0.00062035       0.00000000
Si      -2.71510317      -2.71479366      -0.00031018       0.00000000
