10
Lattice="16.28999089631971 0.0 0.0 0.0 16.28999089631971 0.0 0.0 0.0 34.46413024517268" Properties=species:S:1:pos:R:3:initial_magmoms:R:1 pbc="T T T"
Si       0.32136912       0.74357334       2.23475885       0.00000000
Si      -2.09846151      -1.19847159      -0.46626548       0.00000000
Si       0.23141574       2.14742925      -1.26817731       0.00000000
Si       1.73077992      -2.16849222       0.80918377       0.00000000
Si      -0.91681749       0.94576482      -2.89960675       0.00000000
Si       3.15240822      -0.44903385       0.45864890       0.00000000
Si       0.79897563      -2.96525241      -1.34413629       0.00000000
Si       1.08336645      -1.34635221       2.99989743       0.00000000
Si      -1.44045954       3.39890850       0.02588258       0.00000000
Si      -1.76648760      -3.17483955       0.93421970       0.00000000
