10
Lattice="16.28999089631971 0.0 0.0 0.0 16.28999089631971 0.0 0.0 0.0 34.46413024517268" Properties=species:S:1:pos:R:3:initial_magmoms:R:1 pbc="T T T"
Si       1.35759231      -1.35719648      -1.35712928       0.00000000
Si      -1.35747828       1.35750337      -1.35757731       0.00000000
Si       1.35819504       1.35758319       1.35723267       0.00000000
Si      -1.35707103      -1.35923273       1.35737053       0.00000000
Si       0.00417024      -2.71276883       2.71387945       0.00000000
Si       2.71292031      -0.00120985      -2.71439642       0.00000000
Si      -0.00110772       2.71346994      -2.71470659       0.00000000
Si      -2.71467963      -2.71508201      -0.00044803       0.00000000
Si      -2.71531494      -0.00145653      -2.71501677       0.00000000
Si       2.71538010      -2.71509830       0.00006893       0.00000000
