10
Lattice="16.28999089631971 0.0 0.0 0.0 16.28999089631971 0.0 0.0 0.0 34.46413024517268" Properties=species:S:1:pos:R:3:initial_magmoms:R:1 pbc="T T T"
Si      -1.35532800      -1.35598663       1.35726714       0.00000000
Si      -1.35172791       1.35858942      -1.35847338       0.00000000
Si       1.35858600      -1.35225622      -1.36050677       0.00000000
Si       1.35949824       1.35856335       1.35688803       0.00000000
Si      -2.71292031       0.00120985       2.71439642       0.00000000
Si       0.00245979      -2.71388845       2.71446534       0.00000000
Si      -2.71402803       2.71467979      -0.00031018       0.00000000
Si      -2.71329498      -2.71579438      -0.00037911       0.00000000
Si       0.00237834       2.71639024       2.71446534       0.00000000
Si       2.71710684      -2.71442602      -0.00051696       0.00000000
