10
Lattice="16.28999089631971 0.0 0.0 0.0 16.28999089631971 0.0 0.0 0.0 34.46413024517268" Properties=species:S:1:pos:R:3:initial_magmoms:R:1 pbc="T T T"
Si      -1.23834951       1.29861111       1.50032782       0.00000000
Si       1.63944189      -1.26249259       1.20603845       0.00000000
Si      -1.45647261      -1.61654045      -1.05429280       0.00000000
Si       1.25468838       1.58642283      -1.33831185       0.00000000
Si      -2.24013727       2.54551287      -0.28450155       0.00000000
Si       0.19621305      -2.73778115       2.63963475       0.00000000
Si      -0.11161908       3.79443459      -0.53684806       0.00000000
Si      -2.59767345      -0.07521582       2.85955049       0.00000000
Si       3.35591919      -1.84916165      -0.50276301       0.00000000
Si       0.23253975       2.64196596       2.82038199       0.00000000
