10
Lattice="16.28999089631971 0.0 0.0 0.0 16.28999089631971 0.0 0.0 0.0 34.46413024517268" Properties=species:S:1:pos:R:3:initial_magmoms:R:1 pbc="T T T"
Si      -1.35728280      -1.35749457      -1.35733606       0.00000000
Si       1.35751086       1.35783666      -1.35764624       0.00000000
Si      -1.35728280       1.35972630       1.35940391       0.00000000
Si       1.35839052      -1.36091547       1.36016212       0.00000000
Si      -0.00311139       2.71909422       2.70150682       0.00000000
Si       0.00074934       2.71471221      -2.71467213       0.00000000
Si      -2.71461447      -0.00004887      -2.71498231       0.00000000
Si      -2.71538010      -2.71492398       0.00086160       0.00000000
Si       2.71565703      -0.00006516      -2.71508570       0.00000000
Si       2.71559187       2.71518462       0.00017232       0.00000000
