10
Lattice="16.28999089631971 0.0 0.0 0.0 16.28999089631971 0.0 0.0 0.0 34.46413024517268" Properties=species:S:1:pos:R:3:initial_magmoms:R:1 pbc="T T T"
Si       1.30784265      -1.96011054       0.04831874       0.00000000
Si       0.82911213       1.94344587       1.07845217       0.00000000
Si      -2.39616126      -0.42787314       0.07981897       0.00000000
Si       0.39182337       0.76896945      -2.35393588       0.00000000
Si      -0.36693225      -3.44228877      -0.79377829       0.00000000
Si       0.91136034      -1.32512634      -3.33006398       0.00000000
Si       2.77720065      -1.63318653      -1.83211419       0.00000000
Si      -0.54460728       3.68277804       0.33051119       0.00000000
Si      -2.63482605      -2.66813910      -0.76799911       0.00000000
Si      -3.37895325       0.96065388      -1.64321618       0.00000000
