10
Lattice="16.28999089631971 0.0 0.0 0.0 16.28999089631971 0.0 0.0 0.0 34.46413024517268" Properties=species:S:1:pos:R:3:initial_magmoms:R:1 pbc="T T T"
Si      -1.81175751      -1.54250010      -0.00827140       0.00000000
Si       1.96467174      -0.71737902       1.16381986       0.00000000
Si       0.24892749       0.71959446      -2.29482986       0.00000000
Si      -1.14008823       2.09756556       0.94621322       0.00000000
Si      -3.33855405      -0.51803829      -1.51073599       0.00000000
Si       0.31796451      -1.34345259      -3.50245366       0.00000000
Si       1.18387575      -0.92895354       3.48970192       0.00000000
Si       3.26432052       1.49688810       1.26021609       0.00000000
Si       0.41332617       3.83981364       0.03704896       0.00000000
Si       2.55210543      -2.84340321      -0.62969448       0.00000000
