10
Lattice="16.28999089631971 0.0 0.0 0.0 16.28999089631971 0.0 0.0 0.0 34.46413024517268" Properties=species:S:1:pos:R:3:initial_magmoms:R:1 pbc="T T T"
Si       1.70836488      -1.65395628       0.23769170       0.00000000
Si      -1.90633725      -0.88806564       1.19828888       0.00000000
Si       0.76983282       1.91702349       1.29984094       0.00000000
Si       0.78079599       0.21157452      -2.32588206       0.00000000
Si       2.12879349       0.58613049       2.70870780       0.00000000
Si      -0.60323499      -2.15653536       2.71133742       0.00000000
Si       3.56918787      -0.56177694       1.17606984       0.00000000
Si      -1.18387575       0.92895354      -3.48970192       0.00000000
Si       0.76870881      -3.53862620       1.33770670       0.00000000
Si       2.08044477       2.42584164      -2.22948583       0.00000000
