10
Lattice="16.28999089631971 0.0 0.0 0.0 16.28999089631971 0.0 0.0 0.0 34.46413024517268" Properties=species:S:1:pos:R:3:initial_magmoms:R:1 pbc="T T T"
Si      -1.18750842      -1.38728898      -1.53509323       0.00000000
Si       1.40447493      -1.28673081       1.44079789       0.00000000
Si      -1.30033296       1.44410850       1.43591088       0.00000000
Si       1.80727776       0.89669934      -1.34261095       0.00000000
Si       2.66154165       2.63922435       0.06792884       0.00000000
Si      -2.67959097      -2.70159876      -0.14516300       0.00000000
Si      -2.39199102       0.06428034      -2.99309907       0.00000000
Si       2.78453115      -2.64225429       0.02826060       0.00000000
Si       0.06108750      -2.63305044       2.80988623       0.00000000
Si      -2.68174125       2.76788277       0.02445576       0.00000000
