10
Lattice="16.28999089631971 0.0 0.0 0.0 16.28999089631971 0.0 0.0 0.0 34.46413024517268" Properties=species:S:1:pos:R:3:initial_magmoms:R:1 pbc="T T T"
Si      -1.35031068       1.35602847      -1.35550946       0.00000000
Si      -1.35506736      -1.35817875       1.35709482       0.00000000
Si       1.35902583       1.35689184       1.35706035       0.00000000
Si       1.36132272      -1.35927018      -1.36305711       0.00000000
Si      -0.01586646       2.69301393      -2.72638305       0.00000000
Si      -2.71358820       2.71243161      -0.00068928       0.00000000
Si      -2.71277370      -0.00097740       2.71363820       0.00000000
Si       0.00216657       2.71433754       2.71415517       0.00000000
Si       0.00169416      -2.71505430       2.71412070       0.00000000
Si      -2.71309950      -2.71617831      -0.00031018       0.00000000
