10
Lattice="16.28999089631971 0.0 0.0 0.0 16.28999089631971 0.0 0.0 0.0 34.46413024517268" Properties=species:S:1:pos:R:3:initial_magmoms:R:1 pbc="T T T"
Si      -1.35417141      -1.35936792      -1.34210291       0.00000000
Si       1.35927018       1.35376416      -1.34341255       0.00000000
Si       1.29249747      -1.32849837       1.43767200       0.00000000
Si      -1.26830682       1.35904212       1.44577107       0.00000000
Si      -0.74808567      -1.71735696       2.63581815       0.00000000
Si       0.69098922       1.99451502       2.69268400       0.00000000
Si       2.53268775       0.31109013       2.66094252       0.00000000
Si       0.00143352       2.71005327      -2.70174807       0.00000000
Si      -2.71238274      -0.00283446      -2.70236843       0.00000000
Si      -2.70743058       2.70915732       0.03394719       0.00000000
