10
Lattice="16.28999089631971 0.0 0.0 0.0 16.28999089631971 0.0 0.0 0.0 34.46413024517268" Properties=species:S:1:pos:R:3:initial_magmoms:R:1 pbc="T T T"
Si      -1.35927018      -1.35376416       1.34341255       0.00000000
Si      -1.35783666       1.35628911      -1.35833552       0.00000000
Si       1.35943308      -1.35767376      -1.35792195       0.00000000
Si       1.37362167       1.36438524       1.35437215       0.00000000
Si      -0.00135207       2.61172683       2.78625417       0.00000000
Si      -2.62757700       0.00527796       2.78918362       0.00000000
Si       2.77434990       0.00381186       2.64991399       0.00000000
Si      -2.70938538       2.71669959      -0.00189553       0.00000000
Si      -2.71344159      -2.71313208       0.00130964       0.00000000
Si      -2.71311579      -0.00094482      -2.71622301       0.00000000
