10
Lattice="16.28999089631971 0.0 0.0 0.0 16.28999089631971 0.0 0.0 0.0 34.46413024517268" Properties=species:S:1:pos:R:3:initial_magmoms:R:1 pbc="T T T"
Si       1.60093233       1.04648589      -1.35444108       0.00000000
Si      -1.24019028      -1.63958850      -1.22327052       0.00000000
Si      -1.84169853       1.68342489       0.03174148       0.00000000
Si       0.93488310      -0.02362050       2.40876834       0.00000000
Si       0.20020410       2.40705927      -2.64998292       0.00000000
Si      -1.30945536      -1.27176030       3.15012666       0.00000000
Si       2.04662673       2.26305567       2.02046076       0.00000000
Si      -2.53268775      -0.31109013      -2.66094252       0.00000000
Si       1.76327847      -2.25147348       2.41604027       0.00000000
Si       3.21240429       2.06760825      -0.00537641       0.00000000
