10
Lattice="16.28999089631971 0.0 0.0 0.0 16.28999089631971 0.0 0.0 0.0 34.46413024517268" Properties=species:S:1:pos:R:3:initial_magmoms:R:1 pbc="T T T"
Si      -0.87865002       0.53201511       2.02752592       0.00000000
Si      -1.95929604      -0.63547290      -1.24691293       0.00000000
Si       0.66692889       1.97097597      -1.24984238       0.00000000
Si       1.84169853      -1.68342489      -0.03174148       0.00000000
Si      -0.69098922      -1.99451502      -2.69268400       0.00000000
Si       2.04190263       0.72363438      -2.68172440       0.00000000
Si      -2.30027832      -1.18744326       2.37806078       0.00000000
Si       0.60150825      -3.32301339      -1.25501200       0.00000000
Si       2.03235669       2.29368087       2.00681296       0.00000000
Si       3.44263086      -0.63693900      -1.38618256       0.00000000
