10
Lattice="16.28999089631971 0.0 0.0 0.0 16.28999089631971 0.0 0.0 0.0 34.46413024517268" Properties=species:S:1:pos:R:3:initial_magmoms:R:1 pbc="T T T"
Si      -1.46979783      -0.12561219       1.92210008       0.00000000
Si       1.44739908      -1.91992311      -0.31958606       0.00000000
Si       1.56182004       1.86004107      -0.12779307       0.00000000
Si      -1.38720753      -0.08026083      -1.99643925       0.00000000
Si       1.01411766      -2.23749666      -2.69451060       0.00000000
Si       0.23529276      -0.23400585      -3.63421010       0.00000000
Si      -3.10715460      -1.68008544       1.17777785       0.00000000
Si       2.43638127       1.93460040       2.07746447       0.00000000
Si       0.54599193      -3.78959157       0.85181592       0.00000000
Si       0.48627279       3.89217852      -0.84861075       0.00000000
