10
Lattice="16.28999089631971 0.0 0.0 0.0 16.28999089631971 0.0 0.0 0.0 34.46413024517268" Properties=species:S:1:pos:R:3:initial_magmoms:R:1 pbc="T T T"
Si       1.21184568       1.35493704       1.54156559       0.00000000
Si      -1.41100722      -1.23149142       1.53897389       0.00000000
Si      -1.21117779       0.07669332      -2.20484396       0.00000000
Si       1.66306239       0.15130152      -2.33115507       0.00000000
Si      -0.96111000       2.40314967      -1.76353053       0.00000000
Si      -2.55321315      -2.77074981       0.08857286       0.00000000
Si       2.70989037      -1.89517860      -1.84503824       0.00000000
Si       2.99851659       2.41056162       0.30787035       0.00000000
Si      -3.36328227      -1.21396338      -1.52810592       0.00000000
Si      -0.02959893      -2.55526569       2.95042901       0.00000000
