10
Lattice="16.28999089631971 0.0 0.0 0.0 16.28999089631971 0.0 0.0 0.0 34.46413024517268" Properties=species:S:1:pos:R:3:initial_magmoms:R:1 pbc="T T T"
Si      -1.60388082      -0.93112567      -1.37925526       0.00000000
Si       1.87285383      -1.48091317       0.25992862       0.00000000
Si      -1.35879777       0.05910664       2.02077094       0.00000000
Si       1.11871575       1.74389500      -1.37853152       0.00000000
Si       0.27233622       1.21202650       3.14185526       0.00000000
Si      -0.18181269      -2.21324641      -2.74441469       0.00000000
Si       2.54713439       0.50710607      -2.75623589       0.00000000
Si      -3.28153905      -1.95680923       0.00534194       0.00000000
Si       1.24456905      -3.46402519      -1.26293876       0.00000000
Si       2.03747405      -1.75743592       2.87093258       0.00000000
