10
Lattice="16.28999089631971 0.0 0.0 0.0 16.28999089631971 0.0 0.0 0.0 34.46413024517268" Properties=species:S:1:pos:R:3:initial_magmoms:R:1 pbc="T T T"
Si      -0.15216489       0.41705658       2.25781536       0.00000000
Si       1.13249709       1.63400103      -1.23033567       0.00000000
Si      -1.62266319      -1.26381078      -1.26359358       0.00000000
Si      -0.86508045      -1.85497488       2.54958885       0.00000000
Si       2.44162665       0.22797855      -2.64164260       0.00000000
Si      -0.25111035      -2.50092062      -2.66500929       0.00000000
Si       1.26210033      -2.94701901       2.11916609       0.00000000
Si       2.60338635       2.91467196       0.36149446       0.00000000
Si      -0.28584063       2.94477588      -2.63857529       0.00000000
Si      -2.98750455       0.24081507      -2.62344552       0.00000000
