10
Lattice="16.28999089631971 0.0 0.0 0.0 16.28999089631971 0.0 0.0 0.0 34.46413024517268" Properties=species:S:1:pos:R:3:initial_magmoms:R:1 pbc="T T T"
Si       1.35743222       1.35806472      -1.35540607       0.00000000
Si      -1.35747828       1.35684297       1.35764624       0.00000000
Si      -1.35769005      -1.35876519      -1.35612982       0.00000000
Si       1.35760654      -1.35777150       1.35785303       0.00000000
Si      -0.00016290       2.71300176       2.71477552       0.00000000
Si      -0.00017919      -2.71428215       2.71484445       0.00000000
Si       2.71454998       2.71479366       0.00044803       0.00000000
Si       2.71472754       0.00143352       2.71463766       0.00000000
Si      -2.71474479       2.71477737       0.00031018       0.00000000
Si       2.71221074      -0.00024435      -2.71753265       0.00000000
