10
Lattice="16.28999089631971 0.0 0.0 0.0 16.28999089631971 0.0 0.0 0.0 34.46413024517268" Properties=species:S:1:pos:R:3:initial_magmoms:R:1 pbc="T T T"
Si      -1.35754344      -1.35695700      -1.35726714       0.00000000
Si      -1.35705474       1.35461124       1.36050677       0.00000000
Si       1.35747828       1.35752715      -1.35740499       0.00000000
Si       1.35736425      -1.35666378       1.35930052       0.00000000
Si       2.71477737      -2.71359797      -0.00020678       0.00000000
Si       2.71479366       2.71368594      -0.00027571       0.00000000
Si      -2.71464705      -2.71455420      -0.00010339       0.00000000
Si      -0.00042354      -2.71478389      -2.71484445       0.00000000
Si      -2.71477737       0.00001629      -2.71494784       0.00000000
Si       2.71495656       0.00068418      -2.71505123       0.00000000
