10
Lattice="16.28999089631971 0.0 0.0 0.0 16.28999089631971 0.0 0.0 0.0 34.46413024517268" Properties=species:S:1:pos:R:3:initial_magmoms:R:1 pbc="T T T"
Si       1.77834576       0.78131727      -1.40093321       0.00000000
Si      -1.94061141       0.24391017      -1.42106028       0.00000000
Si       0.51605973      -2.29703661       0.62411128       0.00000000
Si      -0.16228098       1.34399016       2.16972500       0.00000000
Si       2.16625139      -2.70992295      -1.05942796       0.00000000
Si       1.12802941       0.06967233      -3.52089198       0.00000000
Si      -1.01486700       0.89928945      -3.47112575       0.00000000
Si       3.47981183      -0.78345126      -1.16161416       0.00000000
Si       1.83346135      -1.77049494       2.91473652       0.00000000
Si      -2.53348596       1.58886144       2.47345755       0.00000000
