10
Lattice="16.28999089631971 0.0 0.0 0.0 16.28999089631971 0.0 0.0 0.0 34.46413024517268" Properties=species:S:1:pos:R:3:initial_magmoms:R:1 pbc="T T T"
Si       0.92574441       0.65537928      -2.05006547       0.00000000
Si      -1.55207862       1.77186330       0.17738698       0.00000000
Si      -1.32248736      -1.96426449      -0.14450818       0.00000000
Si       1.94061141      -0.24391017       1.42106028       0.00000000
Si      -3.60826758       0.56765763       0.33947187       0.00000000
Si       3.06864082      -0.17423784      -2.09983170       0.00000000
Si       3.71895717       0.53740710       0.02012706       0.00000000
Si       1.06277589       3.00110670      -2.01587703       0.00000000
Si      -1.30508964      -2.99534004       2.00460726       0.00000000
Si      -1.26697104       2.88090279       2.22952030       0.00000000
