10
Lattice="16.28999089631971 0.0 0.0 0.0 16.28999089631971 0.0 0.0 0.0 34.46413024517268" Properties=species:S:1:pos:R:3:initial_magmoms:R:1 pbc="T T T"
Si      -1.31803530       1.39043295      -1.34999520       0.00000000
Si       1.42601031      -1.30754943      -1.33100545       0.00000000
Si       0.80348796       1.86554709       1.31842604       0.00000000
Si      -1.11734739      -1.64820591       1.39293753       0.00000000
Si       0.14191848       0.77822217       3.34088572       0.00000000
Si      -2.09744176       0.05953995       2.87834237       0.00000000
Si       2.70793557      -2.58424560       0.28619030       0.00000000
Si      -2.62937851       2.71373481       0.07657934       0.00000000
Si      -2.66165540       0.04570974      -2.70388485       0.00000000
Si       0.05046642      -2.66870925      -2.70216164       0.00000000
