10
Lattice="16.28999089631971 0.0 0.0 0.0 16.28999089631971 0.0 0.0 0.0 34.46413024517268" Properties=species:S:1:pos:R:3:initial_magmoms:R:1 pbc="T T T"
Si       1.37671677       1.33755561       1.35437215       0.00000000
Si      -1.35720135       1.35821133      -1.36061016       0.00000000
Si       1.35744570      -1.35881406      -1.36140283       0.00000000
Si      -1.37055915      -1.35583299       1.37253475       0.00000000
Si       0.05771547       2.71969695       2.64722579       0.00000000
Si       2.71540582       2.71239903       0.00134410       0.00000000
Si      -2.71440270      -2.71788876      -0.00062035       0.00000000
Si      -2.71663443       2.71588509      -0.00268820       0.00000000
Si       2.71508020       0.00027693      -2.71808408       0.00000000
Si       0.00013032      -2.71497285      -2.71853211       0.00000000
