10
Lattice="16.28999089631971 0.0 0.0 0.0 16.28999089631971 0.0 0.0 0.0 34.46413024517268" Properties=species:S:1:pos:R:3:initial_magmoms:R:1 pbc="T T T"
Si      -1.31900130       1.38214134       1.29285364       0.00000000
Si       1.33868905       1.37484342      -1.35302805       0.00000000
Si      -1.37671677      -1.33755561      -1.35437215       0.00000000
Si       1.37272330      -1.38595320       1.42119813       0.00000000
Si       0.29247066       2.40326370       2.64191831       0.00000000
Si       2.68406650      -2.70925506      -0.00537641       0.00000000
Si       2.69624165       0.02067201      -2.71443088       0.00000000
Si      -0.01927107      -2.69636967      -2.71577498       0.00000000
Si      -2.74727592      -2.69338860       0.01816261       0.00000000
Si      -2.73391812       0.02065572      -2.71498231       0.00000000
