10
Lattice="16.28999089631971 0.0 0.0 0.0 16.28999089631971 0.0 0.0 0.0 34.46413024517268" Properties=species:S:1:pos:R:3:initial_magmoms:R:1 pbc="T T T"
Si       1.16577756      -0.19544742      -2.02583717       0.00000000
Si       1.41351588       1.60972893       1.26659196       0.00000000
Si      -1.85596857       1.71405009       0.01809368       0.00000000
Si      -1.11174363      -2.28667617       0.38830757       0.00000000
Si       2.77395472      -1.64626740      -0.86560158       0.00000000
Si      -0.43391673       3.07380897       1.25435719       0.00000000
Si       1.46909736       0.05528826       3.02895071       0.00000000
Si      -0.10039527      -1.68691095       2.97983929       0.00000000
Si      -0.44569440      -1.21656978      -3.37490184       0.00000000
Si      -2.04662673      -2.26305567      -2.02046076       0.00000000
