10
Lattice="16.28999089631971 0.0 0.0 0.0 16.28999089631971 0.0 0.0 0.0 34.46413024517268" Properties=species:S:1:pos:R:3:initial_magmoms:R:1 pbc="T T T"
Si       1.31900130      -1.38214134      -1.29285364       0.00000000
Si       1.61147196       1.02112236       1.34906467       0.00000000
Si      -1.40072823       1.36057338      -1.29554184       0.00000000
Si      -1.60093233      -1.04648589       1.35444108       0.00000000
Si       0.44569440       1.21656978       3.37490184       0.00000000
Si       2.65769035      -0.00729792      -2.64588169       0.00000000
Si      -3.44263086       0.63693900       1.38618256       0.00000000
Si      -0.05810643       2.71060713      -2.65342933       0.00000000
Si      -0.05771547      -2.71969695      -2.64722579       0.00000000
Si      -2.77570197       2.60791497       0.13634018       0.00000000
