10
Lattice="16.28999089631971 0.0 0.0 0.0 16.28999089631971 0.0 0.0 0.0 34.46413024517268" Properties=species:S:1:pos:R:3:initial_magmoms:R:1 pbc="T T T"
Si       0.82839537      -2.22785298       0.00727194       0.00000000
Si       1.11174363       2.28667617      -0.38830757       0.00000000
Si      -0.93488310       0.02362050      -2.40876834       0.00000000
Si      -2.24433846      -1.24813980       0.74135832       0.00000000
Si       1.01134836       0.59976522       2.59153172       0.00000000
Si       2.43195039      -2.20314105       1.73206476       0.00000000
Si      -1.14808662      -3.43904706       0.83461831       0.00000000
Si       2.27752119       2.09122875      -2.41414474       0.00000000
Si       0.66604923       1.07010639      -3.76320941       0.00000000
Si      -2.77658163       1.70704539      -2.37702686       0.00000000
