10
Lattice="16.28999089631971 0.0 0.0 0.0 16.28999089631971 0.0 0.0 0.0 34.46413024517268" Properties=species:S:1:pos:R:3:initial_magmoms:R:1 pbc="T T T"
Si       2.30876541      -0.29287791      -0.34508953       0.00000000
Si      -0.91210968      -2.14573509       0.46075121       0.00000000
Si      -0.88110981       0.65806713      -2.13629477       0.00000000
Si      -0.83026872       1.75573620       1.93243933       0.00000000
Si      -3.08900754      -1.33876107       0.90258161       0.00000000
Si      -0.83482992      -1.47217617      -3.21895156       0.00000000
Si       3.16390311       1.88854857      -0.05124819       0.00000000
Si       1.43988939       3.30897141      -0.87132263       0.00000000
Si      -2.89399995       0.55594512       2.26725854       0.00000000
Si       0.52457058       2.42123157      -2.84501554       0.00000000
