10
Lattice="16.28999089631971 0.0 0.0 0.0 16.28999089631971 0.0 0.0 0.0 34.46413024517268" Properties=species:S:1:pos:R:3:initial_magmoms:R:1 pbc="T T T"
Si      -1.14627843       0.09940158      -2.07370788       0.00000000
Si       2.25246717      -0.55335501      -0.56569455       0.00000000
Si      -0.04627989       2.13024330       1.08265679       0.00000000
Si      -0.36238734      -1.78259841       1.62756946       0.00000000
Si       0.83482992       1.47217617       3.21895156       0.00000000
Si       2.11543569      -2.89908243      -0.59988299       0.00000000
Si      -0.07727976      -0.67355892       3.67970278       0.00000000
Si      -0.24487128       1.96907004      -3.24510985       0.00000000
Si      -2.28434670       2.85149934       1.08668910       0.00000000
Si       3.63818809       0.98455131       0.57203595       0.00000000
