10
Lattice="16.28999089631971 0.0 0.0 0.0 16.28999089631971 0.0 0.0 0.0 34.46413024517268" Properties=species:S:1:pos:R:3:initial_magmoms:R:1 pbc="T T T"
Si       1.36555553       1.34492262       1.35695696       0.00000000
Si       1.35430892      -1.35957969      -1.35764624       0.00000000
Si      -1.36032903       1.35845309      -1.35764624       0.00000000
Si      -1.36339155      -1.37542986       1.36877816       0.00000000
Si      -0.06286311       2.58171155       2.73466133       0.00000000
Si       2.71015820      -2.71300176       0.00379106       0.00000000
Si       2.71152656       2.71370942       0.00051696       0.00000000
Si       2.71129850       0.00032429      -2.71443088       0.00000000
Si      -0.00289802      -2.71440270      -2.71467213       0.00000000
Si      -0.00254330       2.71496375      -2.71463766       0.00000000
