10
Lattice="16.28999089631971 0.0 0.0 0.0 16.28999089631971 0.0 0.0 0.0 34.46413024517268" Properties=species:S:1:pos:R:3:initial_magmoms:R:1 pbc="T T T"
Si      -1.35475785      -1.33970589      -1.37129404       0.00000000
Si      -1.42206813       1.28212074       1.36515943       0.00000000
Si       1.36339155       1.37542986      -1.36877816       0.00000000
Si       1.42638174      -1.25077878       1.48147593       0.00000000
Si       0.18181269       2.21324641       2.74441469       0.00000000
Si       2.05466652       0.73233324       3.00434330       0.00000000
Si      -2.69737965      -2.68973964      -0.01340655       0.00000000
Si      -2.69019576       2.71845144      -0.01898975       0.00000000
Si       0.00110772      -2.69597871      -2.72714815       0.00000000
Si       2.74076059      -2.68853418       0.03070756       0.00000000
