10
Lattice="16.28999089631971 0.0 0.0 0.0 16.28999089631971 0.0 0.0 0.0 34.46413024517268" Properties=species:S:1:pos:R:3:initial_magmoms:R:1 pbc="T T T"
Si       0.05558148      -1.55444067       1.76235875       0.00000000
Si      -1.84743261       1.46408004      -0.01223477       0.00000000
Si       1.65672788       1.67982480      -0.30828182       0.00000000
Si      -1.41351588      -1.60972893      -1.26659196       0.00000000
Si       2.07293249      -2.20480263       0.73170836       0.00000000
Si       2.93380361      -1.36029645      -1.29561077       0.00000000
Si      -3.26948445       0.10432116      -1.24849828       0.00000000
Si      -2.68081272       1.38577401       2.16396948       0.00000000
Si      -0.24773832      -1.80517635      -3.29242913       0.00000000
Si       1.49210766       1.95634755      -2.91928578       0.00000000
