10
Lattice="16.28999089631971 0.0 0.0 0.0 16.28999089631971 0.0 0.0 0.0 34.46413024517268" Properties=species:S:1:pos:R:3:initial_magmoms:R:1 pbc="T T T"
Si       1.80362880      -0.96242949      -1.11698309       0.00000000
Si       0.91531881       0.88773984       1.97369291       0.00000000
Si      -1.40568039      -1.76316444       0.70872077       0.00000000
Si      -0.61528959       1.93018581      -1.22199535       0.00000000
Si       1.45767807       3.07426087      -0.88011099       0.00000000
Si       2.27878759      -2.90885643       0.19809993       0.00000000
Si       0.77004459      -1.64092428      -3.23966452       0.00000000
Si      -0.52457058      -2.42123157       2.84501554       0.00000000
Si       1.82527821       3.02361852       1.49870801       0.00000000
Si      -0.79548957       1.34346888       3.50579668       0.00000000
