10
Lattice="16.28999089631971 0.0 0.0 0.0 16.28999089631971 0.0 0.0 0.0 34.46413024517268" Properties=species:S:1:pos:R:3:initial_magmoms:R:1 pbc="T T T"
Si       1.71080838      -0.45572904      -1.53210377       0.00000000
Si       1.03747752       1.71881624       1.22630337       0.00000000
Si      -1.61352450       1.15373925      -1.37663599       0.00000000
Si      -0.55934973      -2.00896425       1.27165819       0.00000000
Si       1.41268509       3.25152377      -0.56976132       0.00000000
Si      -3.35103219      -0.49769208      -1.37436135       0.00000000
Si       2.62076778       1.68014964      -2.00708867       0.00000000
Si       3.07795707       0.93432924       1.88346577       0.00000000
Si      -2.41867404       2.87640253       0.02743346       0.00000000
Si      -0.50362164      -0.90370404       3.63479599       0.00000000
