10
Lattice="16.28999089631971 0.0 0.0 0.0 16.28999089631971 0.0 0.0 0.0 34.46413024517268" Properties=species:S:1:pos:R:3:initial_magmoms:R:1 pbc="T T T"
Si      -2.06373123      -1.19979108       0.33481921       0.00000000
Si       0.55934973       2.00896425      -1.27165819       0.00000000
Si       0.05572809       1.10526021       2.36313780       0.00000000
Si       0.83026872      -1.75573620      -1.93243933       0.00000000
Si      -3.11055921       0.84668904      -0.15129762       0.00000000
Si      -1.69560981      -2.40728733       2.35176463       0.00000000
Si      -0.84134592      -0.66476232       3.76230442       0.00000000
Si       2.27015811       1.55323521      -2.80376195       0.00000000
Si      -2.25873882      -3.09449727      -1.02985772       0.00000000
Si       1.59682725       3.72778049      -0.04535482       0.00000000
