10
Lattice="16.28999089631971 0.0 0.0 0.0 16.28999089631971 0.0 0.0 0.0 34.46413024517268" Properties=species:S:1:pos:R:3:initial_magmoms:R:1 pbc="T T T"
Si       0.76988006       0.32233023      -2.20525753       0.00000000
Si      -1.58637789       1.75228272       0.05848566       0.00000000
Si      -1.26271188      -1.93986207       0.61473703       0.00000000
Si       2.19450572       0.02127474       0.99504892       0.00000000
Si       1.80245429      -1.81525986      -2.63216495       0.00000000
Si       2.18890196       1.87750395       2.43320342       0.00000000
Si      -1.19325132      -1.98338895       3.05035294       0.00000000
Si      -3.56566176      -1.56787992       0.15770795       0.00000000
Si       2.01632570       2.41336350      -2.32636456       0.00000000
Si      -0.64492992       3.91644180      -0.02491758       0.00000000
