10
Lattice="16.28999089631971 0.0 0.0 0.0 16.28999089631971 0.0 0.0 0.0 34.46413024517268" Properties=species:S:1:pos:R:3:initial_magmoms:R:1 pbc="T T T"
Si       1.70146606      -1.56476853       0.23931905       0.00000000
Si      -0.65031635      -0.71164494      -2.11995876       0.00000000
Si       1.42479670       1.88217918       0.07537309       0.00000000
Si      -1.77834576      -0.78131727       1.40093321       0.00000000
Si       2.77927762      -0.83219094      -1.73016923       0.00000000
Si      -2.79321276       0.11797218      -2.07019253       0.00000000
Si       0.38790563      -3.49124022       0.34150526       0.00000000
Si      -0.29782518      -3.02573718      -1.87347117       0.00000000
Si       1.24151792       2.40210711       2.38836556       0.00000000
Si       1.21674083      -0.29901924      -3.42359968       0.00000000
