10
Lattice="16.28999089631971 0.0 0.0 0.0 16.28999089631971 0.0 0.0 0.0 34.46413024517268" Properties=species:S:1:pos:R:3:initial_magmoms:R:1 pbc="T T T"
Si       1.35720693       1.35482301       1.35702589       0.00000000
Si      -1.35762649       1.35739683      -1.35730160       0.00000000
Si      -1.35938581      -1.35700587       1.35630214       0.00000000
Si       1.35773473      -1.35830907      -1.35740499       0.00000000
Si      -2.71525138      -0.00073305       2.71215625       0.00000000
Si       2.71419651       2.71472699       0.00024125       0.00000000
Si       0.00289802       2.71440270       2.71467213       0.00000000
Si      -2.71481155       2.71437676      -0.00013786       0.00000000
Si       2.71515762      -0.00188964      -2.71470659       0.00000000
Si      -2.71502332      -0.00131949      -2.71501677       0.00000000
