10
Lattice="10.86 0.0 0.0 0.0 10.86 0.0 0.0 0.0 10.86" Properties=species:S:1:pos:R:3:initial_magmoms:R:1 pbc="T T T"
Si       1.30489416      -1.30489416       1.31891442       0.00000000
Si      -1.37083608       1.37083608       1.32729834       0.00000000
Si       1.34416392       1.37083608      -1.38770166       0.00000000
Si      -1.37083608      -1.34416392      -1.38770166       0.00000000
Si      -0.01333608       2.72833608       2.68479834       0.00000000
Si      -2.72833608       0.01333608       2.68479834       0.00000000
Si       2.70166392       2.72833608      -0.03020166       0.00000000
Si      -2.72833608      -2.70166392      -0.03020166       0.00000000
Si       2.70166392       0.01333608      -2.74520166       0.00000000
Si      -0.01333608      -2.70166392      -2.74520166       0.00000000
