10
Lattice="10.86 0.0 0.0 0.0 10.86 0.0 0.0 0.0 10.86" Properties=species:S:1:pos:R:3:initial_magmoms:R:1 pbc="T T T"
Si      -1.27613688       1.29502242      -1.37857926       0.00000000
Si      -1.50331722      -1.23616122       1.30128864       0.00000000
Si       1.43886312       1.29502242       1.33642074       0.00000000
Si       1.43886312      -1.41997758      -1.37857926       0.00000000
Si      -2.63363688       2.65252242      -0.02107926       0.00000000
Si       0.08136312       2.65252242       2.69392074       0.00000000
Si      -2.63363688      -0.06247758      -2.73607926       0.00000000
Si       2.71052568      -2.67196182      -0.13243770       0.00000000
Si       0.08136312       2.65252242      -2.73607926       0.00000000
Si       2.79636312       2.65252242      -0.02107926       0.00000000
