10
Lattice="10.86 0.0 0.0 0.0 10.86 0.0 0.0 0.0 10.86" Properties=species:S:1:pos:R:3:initial_magmoms:R:1 pbc="T T T"
Si       1.35750000       1.35750000       1.35750000       0.00000000
Si      -1.35750000      -1.35750000       1.35750000       0.00000000
Si       1.35750000      -1.35750000      -1.35750000       0.00000000
Si      -1.35750000       1.35750000      -1.35750000       0.00000000
Si       2.46700104      -0.08689086       2.59596354       0.00000000
Si       2.61454500      -2.49292386       0.13186212       0.00000000
Si       2.72755416      -0.20866404      -2.49586692       0.00000000
Si      -2.43474684       2.89282164      -0.16345386       0.00000000
Si       2.67511122       2.69525652       0.24766230       0.00000000
Si       0.00000000       2.71500000       2.71500000       0.00000000
