10
Lattice="10.86 0.0 0.0 0.0 10.86 0.0 0.0 0.0 10.86" Properties=species:S:1:pos:R:3:initial_magmoms:R:1 pbc="T T T"
Si       1.07724684       1.17967836       1.52095386       0.00000000
Si       1.07724684      -1.53532164      -1.19404614       0.00000000
Si      -1.63775316       1.17967836      -1.19404614       0.00000000
Si       2.43474684       2.53717836       0.16345386       0.00000000
Si       2.43474684      -0.17782164      -2.55154614       0.00000000
Si      -0.28025316       2.53717836      -2.55154614       0.00000000
Si       2.43474684      -0.17782164       2.87845386       0.00000000
Si       2.43474684      -2.89282164       0.16345386       0.00000000
Si      -0.28025316       2.53717836       2.87845386       0.00000000
Si      -0.36609060      -2.78730588      -2.66290458       0.00000000
