10
Lattice="16.28999089631971 0.0 0.0 0.0 16.28999089631971 0.0 0.0 0.0 34.450931932916035" Properties=species:S:1:pos:R:3:initial_magmoms:R:1 pbc="T T T"
Si       0.21830229      -1.19588148      -2.02144401       0.00000000
Si      -1.60269491      -1.04966244       1.38051852       0.00000000
Si      -0.62294589       1.93696964      -1.20953845       0.00000000
Si      -0.58697757      -3.18806703      -1.12902657       0.00000000
Si       1.44951678       2.14357571      -2.45070286       0.00000000
Si      -2.67082369      -2.40163470      -0.31725881       0.00000000
Si       1.94670387       0.77167100       2.96374643       0.00000000
Si       1.00554912      -3.44157201       0.56747607       0.00000000
Si      -0.18948528      -2.49919551       2.64745225       0.00000000
Si      -3.06434986       1.69639892      -1.25087959       0.00000000
