10
Lattice="16.28999089631971 0.0 0.0 0.0 16.28999089631971 0.0 0.0 0.0 34.450931932916035" Properties=species:S:1:pos:R:3:initial_magmoms:R:1 pbc="T T T"
Si      -1.34814411      -1.33480278       1.35919682       0.00000000
Si      -1.39229001       1.30791156      -1.34547156       0.00000000
Si       1.36668213       1.38066758       1.34972281       0.00000000
Si       1.31097033      -1.32745599      -1.45796081       0.00000000
Si       2.23044309       0.63650455      -2.47781990       0.00000000
Si       0.34202484       2.26602745      -2.66340717       0.00000000
Si      -2.72539845      -2.66279616      -0.01559250       0.00000000
Si       2.72243367      -2.68200207      -0.01943034       0.00000000
Si       0.00827532      -2.69257428       2.71391158       0.00000000
Si      -2.70479160       0.02116082       2.71398048       0.00000000
