10
Lattice="16.28999089631971 0.0 0.0 0.0 16.28999089631971 0.0 0.0 0.0 34.450931932916035" Properties=species:S:1:pos:R:3:initial_magmoms:R:1 pbc="T T T"
Si      -1.41385797       1.39562131      -1.24405830       0.00000000
Si       1.38549708       2.01156250       0.42178300       0.00000000
Si       1.50405570      -1.50464118      -1.29187622       0.00000000
Si      -0.64210293       2.28907894       1.84171340       0.00000000
Si       0.43131033       2.24626883      -2.66733044       0.00000000
Si       2.39456484      -2.61851880       0.60554437       0.00000000
Si      -2.39309874      -0.59922669      -2.66619356       0.00000000
Si       3.51660375       0.79648163       1.14638985       0.00000000
Si       2.67144597      -1.20174492       2.41273792       0.00000000
Si       0.89332731      -0.38832428       3.68446033       0.00000000
