10
Lattice="16.28999089631971 0.0 0.0 0.0 16.28999089631971 0.0 0.0 0.0 34.450931932916035" Properties=species:S:1:pos:R:3:initial_magmoms:R:1 pbc="T T T"
Si      -0.89013447      -1.87111827       1.11649814       0.00000000
Si       1.83720249       0.87263901       1.22227978       0.00000000
Si      -0.07719831       0.20619882      -2.41172510       0.00000000
Si      -1.95900282       1.48519188       0.05256285       0.00000000
Si       0.43284159       2.13825798       2.55622751       0.00000000
Si      -2.26949022       1.26820908      -2.27560939       0.00000000
Si      -2.28447702      -0.61111935       2.53817521       0.00000000
Si       0.13613553      -2.06681004      -3.04937775       0.00000000
Si      -0.94912056       3.39920172       1.18091453       0.00000000
Si       3.49668108       1.82658141      -0.20393589       0.00000000
