10
Lattice="16.28999089631971 0.0 0.0 0.0 16.28999089631971 0.0 0.0 0.0 34.450931932916035" Properties=species:S:1:pos:R:3:initial_magmoms:R:1 pbc="T T T"
Si      -2.29863303       0.56583315       0.03069580       0.00000000
Si       0.21833487      -2.36042100       0.31346920       0.00000000
Si       1.55861091       1.41314121       1.25460029       0.00000000
Si       0.54903816       0.75419442      -2.27603654       0.00000000
Si      -0.26003727       2.94221835      -1.63180375       0.00000000
Si      -1.90175976       2.89983177       0.10380072       0.00000000
Si       2.95448472       0.36841464      -1.88577617       0.00000000
Si       3.56910642       0.46529127       0.49599034       0.00000000
Si       1.35511623       0.82671750       3.52757070       0.00000000
Si      -3.25043655      -0.52691634      -2.06075255       0.00000000
