10
Lattice="16.28999089631971 0.0 0.0 0.0 16.28999089631971 0.0 0.0 0.0 34.450931932916035" Properties=species:S:1:pos:R:3:initial_magmoms:R:1 pbc="T T T"
Si       1.35387819      -1.35795069      -1.35461140       0.00000000
Si       1.35526284       1.35645201       1.35757418       0.00000000
Si      -1.35791811       1.35573525      -1.35981349       0.00000000
Si      -1.35964485      -1.35767376       1.35743638       0.00000000
Si      -0.00646713      -2.69522937      -2.69071575       0.00000000
Si       2.69806383       0.01280394      -2.72255532       0.00000000
Si       2.71156824       2.71469592      -0.00093018       0.00000000
Si       2.71218726      -0.00027693       2.71428709       0.00000000
Si       2.71238274      -2.71466334      -0.00062012       0.00000000
Si      -0.00262269       2.71404432       2.71432154       0.00000000
