10
Lattice="16.28999089631971 0.0 0.0 0.0 16.28999089631971 0.0 0.0 0.0 34.450931932916035" Properties=species:S:1:pos:R:3:initial_magmoms:R:1 pbc="T T T"
Si       1.35791811      -1.35573525       1.35981349       0.00000000
Si      -1.36065483       1.35972630       1.35960679       0.00000000
Si      -1.36251189      -1.34801379      -1.37369378       0.00000000
Si       1.33581258       1.38873879      -1.37062076       0.00000000
Si      -2.54428949       0.21354561      -2.79874360       0.00000000
Si       2.67116904       0.05525568      -2.74563401       0.00000000
Si       2.71179630      -2.71368594       0.00520209       0.00000000
Si       2.71306692       2.71673217       0.00416857       0.00000000
Si       2.71318095       0.00071676       2.71738768       0.00000000
Si      -0.00172674      -2.71340901       2.71724987       0.00000000
