10
Lattice="16.28999089631971 0.0 0.0 0.0 16.28999089631971 0.0 0.0 0.0 34.450931932916035" Properties=species:S:1:pos:R:3:initial_magmoms:R:1 pbc="T T T"
Si       1.33535646      -1.33348311      -1.37501325       0.00000000
Si       1.37725434       1.32799338       1.37478932       0.00000000
Si      -1.33581258      -1.38873879       1.37062076       0.00000000
Si      -1.35231435       1.45293768      -1.52153659       0.00000000
Si      -2.70221778       2.68198772       0.01090028       0.00000000
Si       2.72539845       2.66279616       0.01559250       0.00000000
Si       0.02060685       2.68395698       2.72957298       0.00000000
Si      -2.69646741      -0.02901249       2.73022755       0.00000000
Si      -2.69832447      -2.73675258      -0.00307302       0.00000000
Si       2.72016936      -2.73167010       0.00787893       0.00000000
