10
Lattice="16.28999089631971 0.0 0.0 0.0 16.28999089631971 0.0 0.0 0.0 34.450931932916035" Properties=species:S:1:pos:R:3:initial_magmoms:R:1 pbc="T T T"
Si      -1.35695700       1.35749612       1.35726412       0.00000000
Si      -1.35839052      -1.35643572      -1.35726412       0.00000000
Si       1.35755973      -1.35785295       1.35726412       0.00000000
Si       1.35868374       1.35653375      -1.35791869       0.00000000
Si      -2.71515693      -0.00068418      -2.71142766       0.00000000
Si       2.71533123       0.00057015      -2.71270235       0.00000000
Si      -0.00040725      -2.71410948       2.71425264       0.00000000
Si      -2.71403455       0.00003258       2.71504501       0.00000000
Si      -2.71454116      -2.71507059      -0.00010335       0.00000000
Si      -2.71503964       2.71470474       0.00041341       0.00000000
