10
Lattice="16.28999089631971 0.0 0.0 0.0 16.28999089631971 0.0 0.0 0.0 34.450931932916035" Properties=species:S:1:pos:R:3:initial_magmoms:R:1 pbc="T T T"
Si       1.35503478      -1.35624024       1.35623060       0.00000000
Si       1.35628911       1.35874263      -1.35726412       0.00000000
Si      -1.35910728      -1.35653346      -1.35740193       0.00000000
Si      -1.36065483       1.35772775       1.36139824       0.00000000
Si       0.00188964      -2.69135235       2.72100503       0.00000000
Si       2.71448415      -2.71130760      -0.00093018       0.00000000
Si       2.71322982       0.00123804      -2.71476940       0.00000000
Si      -0.00122175      -2.71412577      -2.71414929       0.00000000
Si      -2.71707426      -2.71278999      -0.00041341       0.00000000
Si       2.71340901       2.71689737       0.00172255       0.00000000
