10
Lattice="16.28999089631971 0.0 0.0 0.0 16.28999089631971 0.0 0.0 0.0 34.450931932916035" Properties=species:S:1:pos:R:3:initial_magmoms:R:1 pbc="T T T"
Si      -1.46051253       1.21982778      -1.40349730       0.00000000
Si       1.26628686      -1.47066120      -1.41021524       0.00000000
Si       1.04329305       1.68568920       1.37159572       0.00000000
Si      -0.72692496      -1.88934678       1.39271415       0.00000000
Si       0.16878069      -0.98051139       3.53869835       0.00000000
Si      -0.09625761       2.57841890      -2.76982202       0.00000000
Si       2.61943200      -0.13554909      -2.77498967       0.00000000
Si       2.54487267      -2.87347455      -0.00365180       0.00000000
Si       1.93380219       0.57181158       3.26901631       0.00000000
Si      -2.85386139       2.59110369      -0.00272163       0.00000000
