10
Lattice="16.28999089631971 0.0 0.0 0.0 16.28999089631971 0.0 0.0 0.0 34.450931932916035" Properties=species:S:1:pos:R:3:initial_magmoms:R:1 pbc="T T T"
Si      -0.84380571       0.72958023       2.12624381       0.00000000
Si      -1.19513214       0.90394839      -1.92115729       0.00000000
Si       2.26986489       0.94035654      -0.25724525       0.00000000
Si      -0.21225870      -2.47995702       0.02714735       0.00000000
Si       3.49663221      -0.19901493       1.42578707       0.00000000
Si       0.86481981      -3.29435928      -1.87378723       0.00000000
Si      -0.11078829       2.94416079       2.62750515       0.00000000
Si       2.91046914       0.82500705      -2.58678412       0.00000000
Si       0.08045631      -0.42748218       3.96657917       0.00000000
Si      -0.14792949       2.77918381      -2.92137176       0.00000000
