10
Lattice="16.28999089631971 0.0 0.0 0.0 16.28999089631971 0.0 0.0 0.0 34.450931932916035" Properties=species:S:1:pos:R:3:initial_magmoms:R:1 pbc="T T T"
Si       0.01167993      -2.14177662       0.79333650       0.00000000
Si      -1.59252669       0.25350498      -1.69650264       0.00000000
Si       2.07754515       0.42213906      -1.25797648       0.00000000
Si      -1.19503440       0.94237650       2.07997618       0.00000000
Si      -0.78724683       2.24569053      -2.58892008       0.00000000
Si       1.90995363      -3.03347493      -0.30871497       0.00000000
Si      -1.00554912       3.44157201      -0.56747607       0.00000000
Si      -2.60824403       2.39190957       0.81304245       0.00000000
Si      -1.08328500      -1.52228421      -3.20679789       0.00000000
Si       1.41455844      -2.12389020       2.69945221       0.00000000
