10
Lattice="16.28999089631971 0.0 0.0 0.0 16.28999089631971 0.0 0.0 0.0 34.450931932916035" Properties=species:S:1:pos:R:3:initial_magmoms:R:1 pbc="T T T"
Si       0.16301403       1.96337831       1.36725490       0.00000000
Si      -0.84515778      -1.99822655       1.26634806       0.00000000
Si      -2.13110667       1.21508087      -0.72460686       0.00000000
Si       1.42221474      -0.49221538      -2.14164338       0.00000000
Si      -0.28518903       3.49204820      -0.43659690       0.00000000
Si      -1.12203891      -3.41500043      -0.54084548       0.00000000
Si       3.68035083       0.37318109      -0.55641731       0.00000000
Si       2.00510352      -1.21049361       2.91896019       0.00000000
Si      -3.51660375      -0.79648163      -1.14638985       0.00000000
Si      -2.62327644      -1.18480591       2.53807048       0.00000000
