10
Lattice="16.28999089631971 0.0 0.0 0.0 16.28999089631971 0.0 0.0 0.0 34.450931932916035" Properties=species:S:1:pos:R:3:initial_magmoms:R:1 pbc="T T T"
Si      -1.49669262       0.28308762       1.83971524       0.00000000
Si      -0.16301403      -1.96337831      -1.36725490       0.00000000
Si      -0.44820306       1.52866989      -1.80385180       0.00000000
Si       2.13921909       0.65034567       0.90292498       0.00000000
Si      -2.29412070      -0.74829744      -2.09186176       0.00000000
Si       3.21010740      -1.40377446       0.48090083       0.00000000
Si       2.12713191       1.75247820      -2.29188398       0.00000000
Si      -0.25910874       1.89519489       3.03574892       0.00000000
Si      -1.65289743      -1.82783411       2.81808781       0.00000000
Si       1.79654265       0.87180822       3.23773484       0.00000000
