10
Lattice="16.28999089631971 0.0 0.0 0.0 16.28999089631971 0.0 0.0 0.0 34.450931932916035" Properties=species:S:1:pos:R:3:initial_magmoms:R:1 pbc="T T T"
Si      -2.17469871       0.41987475       0.92156294       0.00000000
Si       1.35047358       1.71139482       1.00465864       0.00000000
Si       0.21243789      -0.27596889      -2.38879450       0.00000000
Si       0.77375871      -2.19982441       0.65070957       0.00000000
Si       3.39548760       0.60554817       0.62187412       0.00000000
Si       2.75636574      -1.39337655       1.74614646       0.00000000
Si      -2.69156412      -1.83876633       1.48738537       0.00000000
Si       0.90619641       3.67034877      -0.27639998       0.00000000
Si       2.36983662      -1.19164934      -2.84606198       0.00000000
Si      -3.62560014       1.43912376      -0.72781079       0.00000000
