10
Lattice="16.28999089631971 0.0 0.0 0.0 16.28999089631971 0.0 0.0 0.0 34.450931932916035" Properties=species:S:1:pos:R:3:initial_magmoms:R:1 pbc="T T T"
Si      -0.50125959       1.56533868       1.67407507       0.00000000
Si       1.22684877       1.45920933      -1.39691717       0.00000000
Si       1.03891104      -1.63848078       1.43667357       0.00000000
Si      -1.55841543      -1.17595881      -1.46254623       0.00000000
Si      -1.53642393      -1.86228909       1.92470574       0.00000000
Si      -2.04480225       0.27254799       2.86356306       0.00000000
Si       2.39510241       0.01150074      -2.84096324       0.00000000
Si       3.05004186       2.23531380       0.08454263       0.00000000
Si       1.36611198       1.45762920       3.27931714       0.00000000
Si       2.47296861      -3.00224700       0.13339408       0.00000000
