10
Lattice="16.28999089631971 0.0 0.0 0.0 16.28999089631971 0.0 0.0 0.0 34.450931932916035" Properties=species:S:1:pos:R:3:initial_magmoms:R:1 pbc="T T T"
Si       1.43405757      -1.36376622      -1.30327948       0.00000000
Si      -1.03891104       1.63848078      -1.43667357       0.00000000
Si       1.04339079       0.78964146       2.10374733       0.00000000
Si      -2.57533497      -0.22380831       0.48803217       0.00000000
Si       0.01208718      -1.10213253       3.19480896       0.00000000
Si      -1.54017063       3.20381946       0.23740150       0.00000000
Si      -2.12713191      -1.75247820       2.29188398       0.00000000
Si       0.32720094       3.09610998       1.84264358       0.00000000
Si       1.39020489      -3.34267542       0.36821177       0.00000000
Si      -0.01169622      -2.46997125      -2.77881372       0.00000000
