10
Lattice="16.28999089631971 0.0 0.0 0.0 16.28999089631971 0.0 0.0 0.0 34.450931932916035" Properties=species:S:1:pos:R:3:initial_magmoms:R:1 pbc="T T T"
Si      -2.01049551       0.94784994       0.75860995       0.00000000
Si       1.77767883       1.57900599       0.11665092       0.00000000
Si       0.08285094      -1.86518871       1.51897689       0.00000000
Si      -0.61462170      -0.09687663      -2.38176651       0.00000000
Si       2.79629253       1.08820458      -1.96601243       0.00000000
Si      -3.56910642      -0.46529127      -0.49599034       0.00000000
Si      -1.43158149       3.30787998       0.70162807       0.00000000
Si      -1.15473294      -3.47729598       0.32294322       0.00000000
Si      -2.21399019       0.36142623       3.03158035       0.00000000
Si       3.17443230       1.05063984       1.95040615       0.00000000
