10
Lattice="16.28999089631971 0.0 0.0 0.0 16.28999089631971 0.0 0.0 0.0 34.450931932916035" Properties=species:S:1:pos:R:3:initial_magmoms:R:1 pbc="T T T"
Si      -2.05565139       1.02338667      -0.20198593       0.00000000
Si       1.12883184       1.73227860       1.11493613       0.00000000
Si       0.34267644      -0.22146255      -2.33480986       0.00000000
Si      -0.03859101      -1.99063800       1.33363077       0.00000000
Si      -3.29323527      -0.58872060      -1.39801960       0.00000000
Si       2.11880772      -2.90631845       0.87636330       0.00000000
Si       3.38255334       1.11977460       1.22066610       0.00000000
Si      -2.79440289       1.61134164       1.97238586       0.00000000
Si      -1.79654265      -0.87180822      -3.23773484       0.00000000
Si      -1.37655387      -3.58311419       0.20439749       0.00000000
