10
Lattice="16.28999089631971 0.0 0.0 0.0 16.28999089631971 0.0 0.0 0.0 34.450931932916035" Properties=species:S:1:pos:R:3:initial_magmoms:R:1 pbc="T T T"
Si       1.72486665       1.43948214       0.70059454       0.00000000
Si      -2.19170547       0.83124612       0.21066757       0.00000000
Si       0.44427717      -1.95895395       1.28105862       0.00000000
Si       0.47366433      -0.22340106      -2.33108916       0.00000000
Si       3.55389156       0.40856949      -0.37634219       0.00000000
Si       2.72738583      -0.83590506      -2.22535919       0.00000000
Si      -3.44957040      -0.34433802      -1.47363944       0.00000000
Si      -0.90619641      -3.67034877       0.27639998       0.00000000
Si       0.38076246       1.98353556      -3.21658196       0.00000000
Si      -3.03192738       0.35859177       2.38362686       0.00000000
