10
Lattice="16.28999089631971 0.0 0.0 0.0 16.28999089631971 0.0 0.0 0.0 34.450931932916035" Properties=species:S:1:pos:R:3:initial_magmoms:R:1 pbc="T T T"
Si       1.39004199      -1.36174626      -1.31095171       0.00000000
Si       1.37186235       1.34241003       1.36270737       0.00000000
Si      -1.34418564      -1.37075463       1.36794392       0.00000000
Si      -1.38481290       1.39818699      -1.38289219       0.00000000
Si      -2.61488709      -0.16267194      -2.62227032       0.00000000
Si      -2.70453096      -2.70803331       0.03183957       0.00000000
Si      -2.69806383      -0.01280394       2.72255532       0.00000000
Si       0.01350441       2.70189198       2.72162514       0.00000000
Si       2.72766276       2.71246419      -0.01171677       0.00000000
Si       0.01431891      -2.72746728       2.72193520       0.00000000
