10
Lattice="16.28999089631971 0.0 0.0 0.0 16.28999089631971 0.0 0.0 0.0 34.450931932916035" Properties=species:S:1:pos:R:3:initial_magmoms:R:1 pbc="T T T"
Si      -1.35850455       1.35671265      -1.35399128       0.00000000
Si       1.35777150       1.35643572       1.35774644       0.00000000
Si      -1.35739683      -1.35840681       1.35753973       0.00000000
Si       1.36122498      -1.36081773      -1.35898667       0.00000000
Si      -2.71884987       0.01943397      -2.69009563       0.00000000
Si      -2.71238274       2.71466334       0.00062012       0.00000000
Si      -0.00019548       2.71438641       2.71490721       0.00000000
Si       2.71686249       2.71278999       0.00113688       0.00000000
Si      -2.71485882      -0.00099369       2.71514836       0.00000000
Si       2.71526607      -0.00143352       2.71504501       0.00000000
