10
Lattice="16.28999089631971 0.0 0.0 0.0 16.28999089631971 0.0 0.0 0.0 34.450931932916035" Properties=species:S:1:pos:R:3:initial_magmoms:R:1 pbc="T T T"
Si      -1.35446463      -1.35711990       1.35809095       0.00000000
Si      -1.35692442       1.35672894      -1.35671291       0.00000000
Si       1.35796698      -1.35795069      -1.35716077       0.00000000
Si       1.35878148       1.35954711       1.35650620       0.00000000
Si      -2.71218726       0.00027693      -2.71428709       0.00000000
Si      -0.00066789       2.71461447       2.71366697       0.00000000
Si      -2.71480995       2.71432125       0.00003445       0.00000000
Si       0.00019548      -2.71438641      -2.71490721       0.00000000
Si       2.71510317       2.71484253      -0.00013780       0.00000000
Si      -2.71466334      -2.71538010       0.00024116       0.00000000
