10
Lattice="16.28999089631971 0.0 0.0 0.0 16.28999089631971 0.0 0.0 0.0 34.450931932916035" Properties=species:S:1:pos:R:3:initial_magmoms:R:1 pbc="T T T"
Si       1.35716877      -1.35894438      -1.36250067       0.00000000
Si      -1.35669636       1.35969372      -1.36418877       0.00000000
Si      -1.35130437      -1.35913986       1.37845146       0.00000000
Si       1.36177884       1.35672894       1.38768431       0.00000000
Si       2.71777473       2.71200807      -0.00423747       0.00000000
Si      -2.71614573       2.71476108      -0.00702799       0.00000000
Si      -2.71502172      -2.71793763      -0.00578776       0.00000000
Si       2.71811682      -2.71738377      -0.00220486       0.00000000
Si       2.71546155      -0.00109143      -2.72024711       0.00000000
Si      -0.00037467       2.71498914      -2.72083277       0.00000000
