10
Lattice="16.28999089631971 0.0 0.0 0.0 16.28999089631971 0.0 0.0 0.0 34.450931932916035" Properties=species:S:1:pos:R:3:initial_magmoms:R:1 pbc="T T T"
Si       1.80876341       0.89143767      -1.15678405       0.00000000
Si       1.48328921      -1.20487356       1.32882831       0.00000000
Si      -1.11629734      -1.53344286      -1.36315692       0.00000000
Si      -1.21173606       1.50938253       1.33079890       0.00000000
Si       0.13483885      -2.55060675       2.68219258       0.00000000
Si      -2.58439614       0.16729830       2.67685269       0.00000000
Si      -2.48546697       2.78941815      -0.11999611       0.00000000
Si      -2.62479534      -2.68682373      -0.04988842       0.00000000
Si       2.87763176      -2.46487248      -0.09284876       0.00000000
Si       1.49827601       0.67445487      -3.48495629       0.00000000
