10
Lattice="16.28999089631971 0.0 0.0 0.0 16.28999089631971 0.0 0.0 0.0 34.450931932916035" Properties=species:S:1:pos:R:3:initial_magmoms:R:1 pbc="T T T"
Si       1.73571579       0.10349037       1.56011132       0.00000000
Si      -0.38115342       2.09378628      -1.03404530       0.00000000
Si       0.69499656      -1.60927281      -1.59804182       0.00000000
Si      -1.95219360      -0.36644355       1.37252590       0.00000000
Si      -1.55540178       1.09255401      -2.90986514       0.00000000
Si       0.79762356       1.38639303       3.23983635       0.00000000
Si      -0.70175691      -1.08090666      -3.43179705       0.00000000
Si       3.04608339      -1.29336084      -1.64406829       0.00000000
Si      -1.52876763       1.25180505       3.16910855       0.00000000
Si       2.03910075      -2.15332623       2.31913468       0.00000000
