10
Lattice="16.28999089631971 0.0 0.0 0.0 16.28999089631971 0.0 0.0 0.0 34.450931932916035" Properties=species:S:1:pos:R:3:initial_magmoms:R:1 pbc="T T T"
Si       1.35909099       1.34633592       1.37418299       0.00000000
Si      -1.35580041      -1.37005416       1.37442414       0.00000000
Si       1.38118023      -1.37943720      -1.37893377       0.00000000
Si      -1.41146334       1.35454608      -1.43853047       0.00000000
Si      -2.72243367       2.68200207       0.01943034       0.00000000
Si       2.72157030       2.69676063      -0.00320049       0.00000000
Si       0.00193851       2.70332428       2.73382423       0.00000000
Si      -2.72766276      -2.71246419       0.01171677       0.00000000
Si      -2.71415835      -0.01057221       2.73334191       0.00000000
Si       2.71726974      -0.01034415       2.73378977       0.00000000
