10
Lattice="16.28999089631971 0.0 0.0 0.0 16.28999089631971 0.0 0.0 0.0 34.450931932916035" Properties=species:S:1:pos:R:3:initial_magmoms:R:1 pbc="T T T"
Si      -1.35694071       1.35750459       1.35750528       0.00000000
Si       1.35757602      -1.35725022       1.35719522       0.00000000
Si       1.35795069       1.35677659      -1.35740193       0.00000000
Si      -1.35814617      -1.35711990      -1.35788424       0.00000000
Si       0.00125433      -2.71254564       2.71383923       0.00000000
Si      -2.71456560       0.00065160      -2.71259899       0.00000000
Si      -2.71322982      -0.00123804       2.71476940       0.00000000
Si      -2.71485882       2.71482854      -0.00003445       0.00000000
Si      -2.71445157      -2.71536381       0.00062012       0.00000000
Si       2.71513575       2.71525534       0.00024116       0.00000000
