10
Lattice="16.28999089631971 0.0 0.0 0.0 16.28999089631971 0.0 0.0 0.0 34.450931932916035" Properties=species:S:1:pos:R:3:initial_magmoms:R:1 pbc="T T T"
Si      -1.35304740      -1.35523026      -1.38289563       0.00000000
Si       1.36394541       1.35688290      -1.37938163       0.00000000
Si       1.34053668      -1.35480672       1.46674925       0.00000000
Si      -1.19627244       1.48815505       1.49055485       0.00000000
Si       2.28450960       0.50199264       2.79473006       0.00000000
Si      -2.70619254      -2.69034237      -0.01812120       0.00000000
Si      -2.69162928       2.72472797       0.00575331       0.00000000
Si       2.72487717      -2.71326240       0.01181668       0.00000000
Si       0.50557644       2.27491546       3.06031244       0.00000000
Si      -2.70808218       0.00100998      -2.73912623       0.00000000
