10
Lattice="16.28999089631971 0.0 0.0 0.0 16.28999089631971 0.0 0.0 0.0 34.450931932916035" Properties=species:S:1:pos:R:3:initial_magmoms:R:1 pbc="T T T"
Si      -1.18534185      -1.61223759       1.24409275       0.00000000
Si      -1.34053668       1.35480672      -1.46674925       0.00000000
Si       1.38434049      -1.35845568      -1.45493257       0.00000000
Si       0.94397292       1.85679936       1.32798082       0.00000000
Si      -1.48572945      -0.56622411       3.24758782       0.00000000
Si       2.62796796       2.67990048      -0.15313448       0.00000000
Si      -2.53680912       2.84296177       0.02380561       0.00000000
Si      -2.76814341      -2.73834900      -0.07830701       0.00000000
Si      -2.69358408      -0.00042354      -2.84964488       0.00000000
Si       2.79050958      -2.76190434       0.03830946       0.00000000
