10
Lattice="16.28999089631971 0.0 0.0 0.0 16.28999089631971 0.0 0.0 0.0 34.450931932916035" Properties=species:S:1:pos:R:3:initial_magmoms:R:1 pbc="T T T"
Si      -1.58415363       1.68767399       0.20656790       0.00000000
Si       0.03792312      -1.34620560       1.89872972       0.00000000
Si       2.23295175       0.93815739       0.26048364       0.00000000
Si      -0.73104633      -1.46743578      -1.84829353       0.00000000
Si       1.99414035      -2.17124523       0.89841191       0.00000000
Si      -3.15413496      -0.24081507       0.16026582       0.00000000
Si       0.79747695       0.44983206       3.35738300       0.00000000
Si      -0.21613572       3.45777146      -0.86423656       0.00000000
Si       3.07229400       0.31190463      -1.82562481       0.00000000
Si       1.59281991       3.15171494       0.65694519       0.00000000
