10
Lattice="16.28999089631971 0.0 0.0 0.0 16.28999089631971 0.0 0.0 0.0 34.450931932916035" Properties=species:S:1:pos:R:3:initial_magmoms:R:1 pbc="T T T"
Si       1.93411170       0.82675008      -0.97964725       0.00000000
Si      -0.17901081      -1.62140886       1.67886375       0.00000000
Si      -0.48897693       2.05337079       1.02891211       0.00000000
Si      -0.15265359       0.50419179      -2.33136477       0.00000000
Si      -2.04613803       1.77735303      -2.38459149       0.00000000
Si       2.66515803       2.29418586       0.86864628       0.00000000
Si      -1.76925690       3.19412691      -0.57739794       0.00000000
Si      -2.53462626      -2.06599554       1.74190899       0.00000000
Si      -3.53553273      -1.18289835      -0.23874509       0.00000000
Si       0.99523755      -0.62017659       3.55468359       0.00000000
