10
Lattice="16.28999089631971 0.0 0.0 0.0 16.28999089631971 0.0 0.0 0.0 34.450931932916035" Properties=species:S:1:pos:R:3:initial_magmoms:R:1 pbc="T T T"
Si       1.22676732      -1.13937147       1.68303232       0.00000000
Si       0.64060425      -0.11534949      -2.32953887       0.00000000
Si       0.78848487       2.27570553      -0.39280975       0.00000000
Si      -2.26986489      -0.94035654       0.25724525       0.00000000
Si       2.12481873      -2.78889687       0.19623262       0.00000000
Si      -1.28440134       3.15917739      -1.01685428       0.00000000
Si       2.21058558       1.81313957      -2.28323679       0.00000000
Si      -3.46499703      -0.03640815      -1.66391204       0.00000000
Si      -3.11367060      -0.21077631       2.38348906       0.00000000
Si      -2.41779438       1.83882727      -2.66412651       0.00000000
