10
Lattice="16.28999089631971 0.0 0.0 0.0 16.28999089631971 0.0 0.0 0.0 34.450931932916035" Properties=species:S:1:pos:R:3:initial_magmoms:R:1 pbc="T T T"
Si      -2.39127426       0.02044395       0.35498260       0.00000000
Si       1.02490164       0.24891120      -2.18580950       0.00000000
Si       0.77533884      -2.24259543       0.53054465       0.00000000
Si       0.84543471       2.08205748       1.08975249       0.00000000
Si       2.95741692       1.36233270      -1.27430623       0.00000000
Si       2.50214400       1.06334604       2.55043837       0.00000000
Si       3.10173003      -2.10800745       0.60127245       0.00000000
Si       3.74443569       0.11917764       0.67544535       0.00000000
Si      -3.31553628       1.17750636      -1.48535276       0.00000000
Si      -0.97941996       3.69366695       0.74376159       0.00000000
