10
Lattice="16.28999089631971 0.0 0.0 0.0 16.28999089631971 0.0 0.0 0.0 34.450931932916035" Properties=species:S:1:pos:R:3:initial_magmoms:R:1 pbc="T T T"
Si      -1.40300883       1.22916195      -1.37693906       0.00000000
Si      -1.35984033      -1.34865073       1.35104228       0.00000000
Si       1.35662535       1.36537893       1.35514195       0.00000000
Si       1.38423853      -1.34079732      -1.37181965       0.00000000
Si       0.10548917       2.38254282      -2.69020756       0.00000000
Si       2.70453815      -2.70781032      -0.00898825       0.00000000
Si       2.70507572       2.71111212       0.00177767       0.00000000
Si      -0.00181839      -2.70511040       2.71154480       0.00000000
Si       2.70924596       0.00918756       2.71006340       0.00000000
Si      -2.71383255      -2.71224332      -0.02692686       0.00000000
