10
Lattice="16.28999089631971 0.0 0.0 0.0 16.28999089631971 0.0 0.0 0.0 34.450931932916035" Properties=species:S:1:pos:R:3:initial_magmoms:R:1 pbc="T T T"
Si       1.03106107      -2.01363948       0.58597623       0.00000000
Si       0.63027639      -0.17661618      -2.26315189       0.00000000
Si       0.38209824       1.99751238       1.19165840       0.00000000
Si      -2.19796083      -0.36057915       0.80618671       0.00000000
Si      -0.02450016      -3.24233065      -1.23579007       0.00000000
Si      -1.60570530      -0.56286837      -3.04022754       0.00000000
Si       0.50841090      -1.86944040       3.14447612       0.00000000
Si       2.68626077       2.21661288       1.28347019       0.00000000
Si      -2.22182568       0.55454418       3.00543208       0.00000000
Si      -2.24482716      -2.56179309      -1.91595520       0.00000000
