10
Lattice="16.28999089631971 0.0 0.0 0.0 16.28999089631971 0.0 0.0 0.0 34.450931932916035" Properties=species:S:1:pos:R:3:initial_magmoms:R:1 pbc="T T T"
Si       1.34505227       1.36278882      -1.39216294       0.00000000
Si      -1.36812918      -1.35368271      -1.38761541       0.00000000
Si      -1.39635015       1.37914398       1.45734414       0.00000000
Si       1.44318323      -1.35610992       1.62243310       0.00000000
Si       0.99253667       0.26264367       3.48691857       0.00000000
Si       2.68928678       2.71264338      -0.00575331       0.00000000
Si       2.70363827      -2.70078426      -0.02366780       0.00000000
Si      -2.72748750      -2.71857294      -0.00344510       0.00000000
Si      -2.72957262       2.71904535      -0.02311659       0.00000000
Si       2.70415955       0.00511506      -2.75259655       0.00000000
