10
Lattice="16.28999089631971 0.0 0.0 0.0 16.28999089631971 0.0 0.0 0.0 34.450931932916035" Properties=species:S:1:pos:R:3:initial_magmoms:R:1 pbc="T T T"
Si       1.35824759       1.35381303      -1.36622137       0.00000000
Si      -1.35179307      -1.35980775      -1.36866739       0.00000000
Si      -1.30196196       1.31085630       1.51446381       0.00000000
Si       1.33322247      -1.33990137       1.48046073       0.00000000
Si       2.20266931       0.49303314       2.71008408       0.00000000
Si      -2.04836976      -0.50564160       2.93460092       0.00000000
Si       0.36088866       2.33645841       2.81901798       0.00000000
Si      -0.41083380      -2.35095651       2.93129363       0.00000000
Si      -2.70813105       2.71430496       0.02122179       0.00000000
Si      -2.70330921      -2.72945466       0.00909505       0.00000000
