10
Lattice="16.28999089631971 0.0 0.0 0.0 16.28999089631971 0.0 0.0 0.0 34.450931932916035" Properties=species:S:1:pos:R:3:initial_magmoms:R:1 pbc="T T T"
Si       1.66285062       1.02560211       1.30455417       0.00000000
Si       1.30196196      -1.31085630      -1.51446381       0.00000000
Si      -0.74640780      -1.81649790       1.42013711       0.00000000
Si      -1.40616909       1.40344866      -1.49324203       0.00000000
Si      -2.56960089      -2.59260237      -0.06132269       0.00000000
Si       2.63518443      -2.65075767      -0.03400309       0.00000000
Si      -0.44411427       1.17719685       3.52901764       0.00000000
Si       3.50463127      -0.81782316       1.19562026       0.00000000
Si       2.72246399       2.73455343      -0.04416612       0.00000000
Si       2.66020955       0.04295673      -2.88068519       0.00000000
