10
Lattice="16.28999089631971 0.0 0.0 0.0 16.28999089631971 0.0 0.0 0.0 34.450931932916035" Properties=species:S:1:pos:R:3:initial_magmoms:R:1 pbc="T T T"
Si       1.60927281       0.79895934       1.45524263       0.00000000
Si      -0.14768514      -2.37853548       0.27023326       0.00000000
Si      -1.74535947       1.34104167       1.03197824       0.00000000
Si       2.10696489      -0.15159474      -2.22446347       0.00000000
Si      -0.30229353      -2.99369475      -2.10888053       0.00000000
Si       3.51925480      -0.45181944       0.96421322       0.00000000
Si       0.44411427      -1.17719685      -3.52901764       0.00000000
Si       2.05798086       3.12038208       1.05464697       0.00000000
Si       0.97982721       0.63723222       3.77868368       0.00000000
Si      -3.83212476       1.01848338      -0.31973928       0.00000000
