10
Lattice="16.28999089631971 0.0 0.0 0.0 16.28999089631971 0.0 0.0 0.0 34.450931932916035" Properties=species:S:1:pos:R:3:initial_magmoms:R:1 pbc="T T T"
Si       1.63449040      -0.32552307      -1.61213226       0.00000000
Si      -0.80482374      -2.13576561       0.51617860       0.00000000
Si       1.06938378       0.39860001       2.08504047       0.00000000
Si      -0.99505836       2.20002966      -0.00444417       0.00000000
Si      -1.62686601      -0.24488757      -2.37008764       0.00000000
Si      -1.14116337       2.00858958      -2.28992027       0.00000000
Si      -2.93723361       1.15196364       0.83409198       0.00000000
Si      -2.63384865      -1.10485296       1.59311534       0.00000000
Si       1.12076733       1.70712684      -2.62278536       0.00000000
Si       2.47712975      -1.48038633       2.19755727       0.00000000
