10
Lattice="16.28999089631971 0.0 0.0 0.0 16.28999089631971 0.0 0.0 0.0 34.450931932916035" Properties=species:S:1:pos:R:3:initial_magmoms:R:1 pbc="T T T"
Si      -0.75355911      -0.25063794      -2.19216919       0.00000000
Si      -1.87212825      -0.73300113       1.26599460       0.00000000
Si       1.85603373      -1.63248606       0.13284252       0.00000000
Si       0.91412964       2.00661849       1.20742109       0.00000000
Si      -0.53408394      -2.10246885       2.65182200       0.00000000
Si       2.19508029       0.64816281       2.66062767       0.00000000
Si       1.20150153      -0.87692328      -3.27379125       0.00000000
Si      -2.32826454       1.51259166      -2.52010779       0.00000000
Si       0.91841391      -3.52914705       1.22160799       0.00000000
Si      -3.13905042      -2.24876934      -0.03172464       0.00000000
