10
Lattice="16.28999089631971 0.0 0.0 0.0 16.28999089631971 0.0 0.0 0.0 34.450931932916035" Properties=species:S:1:pos:R:3:initial_magmoms:R:1 pbc="T T T"
Si       1.35677575      -1.35314514       1.36253512       0.00000000
Si      -1.35697329       1.36259334       1.36287963       0.00000000
Si      -1.35501849      -1.37596743      -1.36401651       0.00000000
Si       1.37414574       1.37466423      -1.35521085       0.00000000
Si       2.71478456      -2.71059084       0.00330729       0.00000000
Si      -2.71518462      -2.71181259       0.00850938       0.00000000
Si      -0.00052128      -2.71088406       2.72035046       0.00000000
Si       2.71468193       2.71888245       0.00899170       0.00000000
Si      -2.71515204       2.71927341       0.00327284       0.00000000
Si      -2.71490769       0.00387702       2.72045381       0.00000000
