10
Lattice="16.28999089631971 0.0 0.0 0.0 16.28999089631971 0.0 0.0 0.0 34.450931932916035" Properties=species:S:1:pos:R:3:initial_magmoms:R:1 pbc="T T T"
Si      -1.43293356      -0.60124761       1.72695728       0.00000000
Si       2.26422855      -0.38807667       0.54894146       0.00000000
Si      -0.75955383      -1.79603766      -1.45865327       0.00000000
Si      -0.30836970       2.37720363      -0.58842225       0.00000000
Si       2.66085747      -0.98069058      -1.68582285       0.00000000
Si       1.43547480       0.48832533      -3.09689935       0.00000000
Si      -0.79747695      -0.44983206      -3.35738300       0.00000000
Si      -1.90444761       1.36902856       2.90834930       0.00000000
Si       1.19666340      -2.62107729      -2.45897109       0.00000000
Si      -3.36544884      -1.71466911       0.81545401       0.00000000
