10
Lattice="16.28999089631971 0.0 0.0 0.0 16.28999089631971 0.0 0.0 0.0 34.450931932916035" Properties=species:S:1:pos:R:3:initial_magmoms:R:1 pbc="T T T"
Si       1.38196215      -1.26094374       1.37531298       0.00000000
Si       1.47160602       1.28441763      -1.27879691       0.00000000
Si      -1.33200072       1.44200709       1.33252145       0.00000000
Si      -1.00988226      -1.91400984      -1.12835168       0.00000000
Si       0.06872751       1.26653121      -3.18491262       0.00000000
Si       0.94912056      -3.39920172      -1.18091453       0.00000000
Si       2.78632305      -2.52656271       0.04136526       0.00000000
Si       0.02933829      -2.64091851       2.70414818       0.00000000
Si      -2.68680744       0.07602543       2.70597408       0.00000000
Si       2.74230747       0.07633494       2.71141733       0.00000000
