10
Lattice="16.28999089631971 0.0 0.0 0.0 16.28999089631971 0.0 0.0 0.0 34.450931932916035" Properties=species:S:1:pos:R:3:initial_magmoms:R:1 pbc="T T T"
Si       1.36251189       1.34801379       1.37369378       0.00000000
Si      -1.35480672      -1.36598166       1.37345263       0.00000000
Si       1.33200072      -1.44200709      -1.33252145       0.00000000
Si      -1.18177760       1.56155940      -1.42504982       0.00000000
Si      -2.69544554       2.71927341       0.01493449       0.00000000
Si       2.71396287      -2.70295083       0.04279153       0.00000000
Si       2.80360674      -0.15758946      -2.61131837       0.00000000
Si       2.69832447       2.73675258       0.00307302       0.00000000
Si      -2.69838101      -2.73807207       0.02670982       0.00000000
Si       0.00185706       2.70774009       2.73330057       0.00000000
