10
Lattice="16.28999089631971 0.0 0.0 0.0 16.28999089631971 0.0 0.0 0.0 34.450931932916035" Properties=species:S:1:pos:R:3:initial_magmoms:R:1 pbc="T T T"
Si      -1.35677575       1.35314514      -1.36253512       0.00000000
Si      -1.35729703      -1.35773892       1.35781534       0.00000000
Si       1.35852194       1.35764118       1.35778089       0.00000000
Si       1.35800881      -1.35744570      -1.35922783       0.00000000
Si      -2.71361872      -0.00070047       2.71556178       0.00000000
Si      -2.71374904       2.71573848       0.00034451       0.00000000
Si       0.00087800       2.71469592       2.71528617       0.00000000
Si       0.00070575      -2.71503801       2.71549287       0.00000000
Si      -2.71681156      -2.71376739       0.00017225       0.00000000
Si       2.71467259       2.71627605       0.00062012       0.00000000
