10
Lattice="16.28999089631971 0.0 0.0 0.0 16.28999089631971 0.0 0.0 0.0 34.450931932916035" Properties=species:S:1:pos:R:3:initial_magmoms:R:1 pbc="T T T"
Si      -0.86944684      -1.83293451      -1.22962335       0.00000000
Si      -0.21321329      -0.65252853       2.27200578       0.00000000
Si       1.93543771       0.90932409      -1.15062732       0.00000000
Si      -1.84178065       1.84342527       0.10893391       0.00000000
Si       1.51943998      -2.94943482       0.79995109       0.00000000
Si      -2.20266931      -0.49303314      -2.71008408       0.00000000
Si       0.53937819       2.22304743      -2.70074787       0.00000000
Si      -0.42949074       1.54320057       3.29761060       0.00000000
Si      -3.50463127       0.81782316      -1.19562026       0.00000000
Si      -0.78216728       3.55237659      -1.23978638       0.00000000
