10
Lattice="16.28999089631971 0.0 0.0 0.0 16.28999089631971 0.0 0.0 0.0 34.450931932916035" Properties=species:S:1:pos:R:3:initial_magmoms:R:1 pbc="T T T"
Si      -1.93543771      -0.90932409       1.15062732       0.00000000
Si       1.28075238      -1.40875920      -1.54209348       0.00000000
Si      -1.39605952       1.31372334      -1.55012055       0.00000000
Si       2.01947130       0.91618218       1.23475654       0.00000000
Si      -2.71760499       2.64305250      -0.08915906       0.00000000
Si       3.52807191      -1.00224225       1.16364978       0.00000000
Si       2.68915320      -2.76063372      -0.14162786       0.00000000
Si      -2.80488455      -2.74225860      -0.07899603       0.00000000
Si       2.74639626       2.80552896      -0.15795761       0.00000000
Si       2.64973140      -0.04303818      -2.92660830       0.00000000
