10
Lattice="16.28999089631971 0.0 0.0 0.0 16.28999089631971 0.0 0.0 0.0 34.450931932916035" Properties=species:S:1:pos:R:3:initial_magmoms:R:1 pbc="T T T"
Si      -1.35492961       1.35142559      -1.35912448       0.00000000
Si       1.36133082      -1.36238157      -1.35822875       0.00000000
Si       1.35908768       1.36412201       1.37486856       0.00000000
Si      -1.35984919      -1.37813400       1.37948499       0.00000000
Si      -2.71169113       2.70957176       0.00075792       0.00000000
Si       0.00306385       2.70957176      -2.71532062       0.00000000
Si      -2.71198435      -0.00501410      -2.71594074       0.00000000
Si       2.71655130       2.71240622       0.00134359       0.00000000
Si      -2.70900328      -2.72272689       0.00041341       0.00000000
Si       2.71840836      -0.00491803      -2.71600964       0.00000000
