10
Lattice="16.28999089631971 0.0 0.0 0.0 16.28999089631971 0.0 0.0 0.0 34.450931932916035" Properties=species:S:1:pos:R:3:initial_magmoms:R:1 pbc="T T T"
Si       1.32154547      -1.32932916      -1.46096149       0.00000000
Si      -1.05961337      -1.70895132       1.34872029       0.00000000
Si       0.89294417       1.81185525       1.39454005       0.00000000
Si      -1.42348310       1.36876725      -1.46192611       0.00000000
Si      -0.92000807       3.41969684       1.07204470       0.00000000
Si       2.71760499      -2.64305250       0.08915906       0.00000000
Si       2.61013986       2.75358015      -0.07152017       0.00000000
Si       0.78216728      -3.55237659       1.23978638       0.00000000
Si      -2.72246399      -2.73455343       0.04416612       0.00000000
Si       2.65325949       0.02479338      -2.84241018       0.00000000
