10
Lattice="16.28999089631971 0.0 0.0 0.0 16.28999089631971 0.0 0.0 0.0 34.25627252547053" Properties=species:S:1:pos:R:3:initial_magmoms:R:1 pbc="T T T"
Si      -1.34591075      -1.36593390       1.38483114       0.00000000
Si       1.36195803       1.35391359       1.38435156       0.00000000
Si       1.34803008      -1.38981504      -1.37546890       0.00000000
Si      -1.44267172       1.37096107      -1.51023658       0.00000000
Si      -2.69936921       2.70631265       0.01663143       0.00000000
Si      -2.69478744      -2.71920936       0.04201192       0.00000000
Si       2.74085766       2.69116295       0.01366826       0.00000000
Si      -2.70512485      -0.00937484       2.74466890       0.00000000
Si       2.73496068      -2.71648893       0.02949467       0.00000000
Si       0.01016496       2.70689909       2.74579936       0.00000000
