10
Lattice="16.28999089631971 0.0 0.0 0.0 16.28999089631971 0.0 0.0 0.0 34.25627252547053" Properties=species:S:1:pos:R:3:initial_magmoms:R:1 pbc="T T T"
Si       0.66894233       1.77631047      -1.38902411       0.00000000
Si       1.66855864      -1.28065464       1.13909021       0.00000000
Si      -0.67829998      -1.69717365      -1.54787054       0.00000000
Si      -1.54587280       1.49612247       1.09308401       0.00000000
Si       2.92013563       1.28436876      -1.02861367       0.00000000
Si       3.50349682      -0.82222146      -0.15624295       0.00000000
Si      -3.62460712       0.31716630       1.03464278       0.00000000
Si       1.24005019      -2.25258120      -2.87893301       0.00000000
Si      -1.47277957      -3.56364927      -0.29230894       0.00000000
Si      -2.58033667      -0.98215668      -2.71169379       0.00000000
