10
Lattice="16.28999089631971 0.0 0.0 0.0 16.28999089631971 0.0 0.0 0.0 34.25627252547053" Properties=species:S:1:pos:R:3:initial_magmoms:R:1 pbc="T T T"
Si       1.32797709      -1.21191898      -1.53509294       0.00000000
Si       1.26936567       1.59321087       1.27943824       0.00000000
Si      -0.62335314      -1.86924655       1.49573246       0.00000000
Si      -1.40796099       1.48926438      -1.52022571       0.00000000
Si       1.07626401      -0.79117272       3.21560384       0.00000000
Si      -2.67867873      -2.50757069      -0.22735901       0.00000000
Si       2.75201631      -2.45421051       0.07567215       0.00000000
Si      -0.31154625       2.32261191       2.98033163       0.00000000
Si       2.59763598       2.82136284      -0.21382777       0.00000000
Si      -0.04709439      -2.56992747      -2.91664919       0.00000000
