10
Lattice="16.28999089631971 0.0 0.0 0.0 16.28999089631971 0.0 0.0 0.0 34.25627252547053" Properties=species:S:1:pos:R:3:initial_magmoms:R:1 pbc="T T T"
Si       1.55403342      -1.58202779       0.71167446       0.00000000
Si      -1.00838358       0.78291369       1.95219755       0.00000000
Si       0.31346847       1.82055411      -1.43064551       0.00000000
Si      -1.56124989      -1.48441648      -1.04084317       0.00000000
Si      -1.73104056      -1.38206478       2.50033247       0.00000000
Si      -2.86788708       0.15509709      -2.10182903       0.00000000
Si       0.11111409      -2.86944182       2.11313361       0.00000000
Si      -1.16450694       1.28938608      -3.19289192       0.00000000
Si       2.86539471      -1.79067336      -1.43811338       0.00000000
Si       2.58422931       2.30314536      -1.61747932       0.00000000
