10
Lattice="16.28999089631971 0.0 0.0 0.0 16.28999089631971 0.0 0.0 0.0 34.25627252547053" Properties=species:S:1:pos:R:3:initial_magmoms:R:1 pbc="T T T"
Si      -0.27619695      -0.72386244      -2.21223162       0.00000000
Si       1.05443541      -1.55282796       1.41228414       0.00000000
Si       0.93675645       1.59589872      -1.54488480       0.00000000
Si      -1.65509658       1.16983377       1.40733068       0.00000000
Si      -2.55236607      -1.03977441      -1.65220976       0.00000000
Si       2.42300718       2.72236851      -0.07293507       0.00000000
Si       2.39663367      -0.17752842       2.78320723       0.00000000
Si      -1.02209976       3.22530597      -1.57225558       0.00000000
Si      -0.31902336       2.53239453       2.78502281       0.00000000
Si       2.40981228      -3.00064081       0.06906754       0.00000000
