10
Lattice="16.28999089631971 0.0 0.0 0.0 16.28999089631971 0.0 0.0 0.0 34.25627252547053" Properties=species:S:1:pos:R:3:initial_magmoms:R:1 pbc="T T T"
Si      -0.91566090       2.20204962       0.43683623       0.00000000
Si       1.58091192      -0.72940104      -1.70089339       0.00000000
Si      -0.01785384      -1.95885621       1.67920916       0.00000000
Si      -2.36703474      -1.19161350       0.41744717       0.00000000
Si      -1.58340429       2.30741334      -1.81657689       0.00000000
Si       1.38781026      -3.11378463       0.23527221       0.00000000
Si       1.32638067      -0.76799205       3.21060242       0.00000000
Si       3.26277297      -1.56418209      -0.07697389       0.00000000
Si      -3.12585552       0.36377199       2.09007912       0.00000000
Si       0.31154625      -2.32261191      -2.98033163       0.00000000
