10
Lattice="16.28999089631971 0.0 0.0 0.0 16.28999089631971 0.0 0.0 0.0 34.25627252547053" Properties=species:S:1:pos:R:3:initial_magmoms:R:1 pbc="T T T"
Si      -0.66774339       0.10536372      -2.25341312       0.00000000
Si      -1.80643068       0.48208626       1.48179015       0.00000000
Si       0.91566090      -2.20204962      -0.43683623       0.00000000
Si       0.45501228       2.24243253       0.98688951       0.00000000
Si      -2.21019462      -1.83827763       1.65324289       0.00000000
Si       1.69650576       1.20026349       2.75400031       0.00000000
Si      -1.45137384      -3.39366312      -0.01938906       0.00000000
Si       1.07103492      -1.07759979       3.43837251       0.00000000
Si      -2.49572574       1.87435998      -2.19144349       0.00000000
Si      -3.40481363       1.73380986       0.12890643       0.00000000
