10
Lattice="16.28999089631971 0.0 0.0 0.0 16.28999089631971 0.0 0.0 0.0 34.25627252547053" Properties=species:S:1:pos:R:3:initial_magmoms:R:1 pbc="T T T"
Si       0.57907692       2.10344625      -0.85914780       0.00000000
Si       0.99502578      -1.93315059      -0.91388935       0.00000000
Si       0.40970979       0.38783232       2.34587085       0.00000000
Si      -2.34022140       0.12603573      -0.66155750       0.00000000
Si      -1.91088216       0.52924581       2.63400052       0.00000000
Si      -2.64139092       1.92000456       0.79022414       0.00000000
Si       0.54752319       1.45124352      -3.11060831       0.00000000
Si      -2.33207640      -1.78958682       2.09138086       0.00000000
Si      -0.83812050      -0.35199432      -3.54501234       0.00000000
Si      -0.48294963      -2.46431862      -2.67613576       0.00000000
