10
Lattice="16.28999089631971 0.0 0.0 0.0 16.28999089631971 0.0 0.0 0.0 34.25627252547053" Properties=species:S:1:pos:R:3:initial_magmoms:R:1 pbc="T T T"
Si      -1.71687219       1.55833887       0.27127557       0.00000000
Si       1.91411084       1.04675142       0.97911333       0.00000000
Si       0.60457403       0.21599074      -2.30442074       0.00000000
Si      -0.96626530      -2.05386179       0.78087217       0.00000000
Si       3.45897299      -0.21146863      -0.27463269       0.00000000
Si      -1.68725697       0.28387931      -3.20292901       0.00000000
Si      -1.25303073       3.18507456      -1.37076551       0.00000000
Si      -3.67103688       0.36203385      -0.07711091       0.00000000
Si       1.41058694       0.96882006       3.27568938       0.00000000
Si      -3.05022498      -1.16062340       1.75032522       0.00000000
