10
Lattice="16.28999089631971 0.0 0.0 0.0 16.28999089631971 0.0 0.0 0.0 34.25627252547053" Properties=species:S:1:pos:R:3:initial_magmoms:R:1 pbc="T T T"
Si       1.35596331      -1.35736425      -1.35713151       0.00000000
Si      -1.35777150      -1.35744570       1.35747407       0.00000000
Si       1.35760860       1.35790182       1.35740556       0.00000000
Si      -1.35526284       1.35876519      -1.36185888       0.00000000
Si       2.71736748      -0.00814500      -2.70686708       0.00000000
Si      -0.00037467      -2.71446786       2.71470835       0.00000000
Si       2.71472850       0.00092853       2.71460558       0.00000000
Si      -2.71477737       0.00063531       2.71491388       0.00000000
Si      -0.00047241       2.71580364       2.71436578       0.00000000
Si      -2.71564074      -2.71458189       0.00034256       0.00000000
