10
Lattice="16.28999089631971 0.0 0.0 0.0 16.28999089631971 0.0 0.0 0.0 34.25627252547053" Properties=species:S:1:pos:R:3:initial_magmoms:R:1 pbc="T T T"
Si       1.35146727       1.33913574      -1.38097389       0.00000000
Si       1.38373776      -1.27873242       1.42629496       0.00000000
Si      -1.35487188      -1.37797110      -1.37446519       0.00000000
Si      -1.32183576       1.31512428       1.56732811       0.00000000
Si      -0.48707100      -2.32375221       2.70319823       0.00000000
Si      -2.31505335      -0.55475595       2.76516786       0.00000000
Si      -2.71209441       2.68051950       0.01466169       0.00000000
Si       2.70989037       2.70042588      -0.00691977       0.00000000
Si       2.70130554      -2.71881729      -0.00787895       0.00000000
Si       0.00071676       2.69506647      -2.73913308       0.00000000
