10
Lattice="16.28999089631971 0.0 0.0 0.0 16.28999089631971 0.0 0.0 0.0 34.25627252547053" Properties=species:S:1:pos:R:3:initial_magmoms:R:1 pbc="T T T"
Si      -1.35075051       1.35593073      -1.35815920       0.00000000
Si      -1.35146727      -1.33913574       1.38097389       0.00000000
Si       1.36404315      -1.35718506      -1.35528167       0.00000000
Si       1.35842310       1.36129014       1.37405412       0.00000000
Si       2.65411341      -0.05331717       2.75345221       0.00000000
Si      -2.70847314      -0.00047241      -2.71381768       0.00000000
Si      -2.70633915      -2.71710684       0.00650870       0.00000000
Si      -2.70905958       2.71681362       0.00219240       0.00000000
Si       0.03227049      -2.61786816       2.80726885       0.00000000
Si       0.00583182       2.71469592      -2.71436578       0.00000000
