10
Lattice="16.28999089631971 0.0 0.0 0.0 16.28999089631971 0.0 0.0 0.0 34.25627252547053" Properties=species:S:1:pos:R:3:initial_magmoms:R:1 pbc="T T T"
Si       1.19061981       1.36935369      -1.55119340       0.00000000
Si       1.24149348      -1.04216904       1.76711081       0.00000000
Si      -0.45501228      -2.24243253      -0.98688951       0.00000000
Si      -1.75019760       1.82138490       0.80413219       0.00000000
Si      -2.26144296      -1.76034627       0.49490065       0.00000000
Si      -2.51375877      -0.02863782       2.14488919       0.00000000
Si       2.87450082       1.99039365       0.50034740       0.00000000
Si       3.44157201      -0.10238265       1.43057700       0.00000000
Si       2.35489869      -0.05699871      -3.08224410       0.00000000
Si       0.86708412       0.18075384       3.79957085       0.00000000
