10
Lattice="16.28999089631971 0.0 0.0 0.0 16.28999089631971 0.0 0.0 0.0 34.25627252547053" Properties=species:S:1:pos:R:3:initial_magmoms:R:1 pbc="T T T"
Si      -0.77740767       1.75176144      -1.36675753       0.00000000
Si      -0.76470147      -2.03053221      -0.92180255       0.00000000
Si      -0.98324811       0.53558262       2.14608816       0.00000000
Si       2.41986321       0.01894527      -0.11643714       0.00000000
Si       0.54056736      -3.48153138       0.45547165       0.00000000
Si       0.96518250       1.73607417      -2.99290369       0.00000000
Si       0.40777128       2.38213557       2.92336342       0.00000000
Si       2.96165232       1.78471611      -1.59154731       0.00000000
Si      -3.06528930      -2.22713622      -0.42868323       0.00000000
Si       3.32965971      -0.12253338       2.09658782       0.00000000
