10
Lattice="16.28999089631971 0.0 0.0 0.0 16.28999089631971 0.0 0.0 0.0 34.25627252547053" Properties=species:S:1:pos:R:3:initial_magmoms:R:1 pbc="T T T"
Si      -1.91379807       0.77514336      -1.12408595       0.00000000
Si      -0.87891066      -0.73311516       2.09659985       0.00000000
Si       0.73282194       2.35677204       0.54005044       0.00000000
Si       1.57986936      -1.99985814      -0.18957432       0.00000000
Si       1.00092276       0.58137381      -2.83207040       0.00000000
Si       2.37097692       1.32727662       1.92366206       0.00000000
Si       0.90481176       0.15431517       3.34705692       0.00000000
Si      -2.36646459      -1.11301425      -2.42380392       0.00000000
Si       3.02852277       1.28067093      -1.52032848       0.00000000
Si       3.59064180      -0.57203964       0.07649430       0.00000000
