10
Lattice="16.28999089631971 0.0 0.0 0.0 16.28999089631971 0.0 0.0 0.0 34.25627252547053" Properties=species:S:1:pos:R:3:initial_magmoms:R:1 pbc="T T T"
Si      -0.85084462      -2.01892463       0.89638438       0.00000000
Si      -1.47795097       1.78372242       0.50565712       0.00000000
Si      -0.13489260      -0.37231121      -2.35464046       0.00000000
Si       2.27618541      -0.03567021       0.85157715       0.00000000
Si       2.35056555      -2.33418500       1.32592403       0.00000000
Si      -0.51156790      -1.60261739       3.18864414       0.00000000
Si      -2.56788134      -0.36692573      -2.72251878       0.00000000
Si       0.83044791       1.53453429      -3.34903210       0.00000000
Si      -0.78838713       3.64399155      -0.78566805       0.00000000
Si       0.69706539      -3.74019119       0.34174077       0.00000000
