10
Lattice="16.28999089631971 0.0 0.0 0.0 16.28999089631971 0.0 0.0 0.0 34.25627252547053" Properties=species:S:1:pos:R:3:initial_magmoms:R:1 pbc="T T T"
Si      -1.35651717       1.35694071      -1.35730279       0.00000000
Si       1.35703845       1.35708732       1.35819345       0.00000000
Si      -1.35879777      -1.35736751       1.35702874       0.00000000
Si       1.35832536      -1.35804028      -1.35726853       0.00000000
Si      -2.71474479      -0.00034209       2.71210487       0.00000000
Si      -2.71394658       2.71445157      -0.00027405       0.00000000
Si      -2.71345788       0.00091224      -2.71546198       0.00000000
Si       2.71391400      -0.00197109      -2.71515368       0.00000000
Si      -2.71419093      -2.71522982       0.00017128       0.00000000
Si       0.00037467       2.71578735      -2.71474260       0.00000000
