10
Lattice="16.28999089631971 0.0 0.0 0.0 16.28999089631971 0.0 0.0 0.0 34.25627252547053" Properties=species:S:1:pos:R:3:initial_magmoms:R:1 pbc="T T T"
Si      -2.24109675       0.19870542      -0.43597982       0.00000000
Si       1.23427701       1.79738973       0.81872537       0.00000000
Si       1.16670609      -0.08027712      -2.04270267       0.00000000
Si      -0.09314622      -2.02704126       1.26785961       0.00000000
Si      -2.35888974      -2.07627779      -1.09493385       0.00000000
Si       3.25462797       0.70108902       0.58311060       0.00000000
Si      -2.79883377       1.51060428       1.42218420       0.00000000
Si       0.96337431      -3.32710937      -0.48647360       0.00000000
Si      -2.15368461       1.48393755      -2.40225671       0.00000000
Si       0.91300563      -2.29104189      -2.67545064       0.00000000
