10
Lattice="16.28999089631971 0.0 0.0 0.0 16.28999089631971 0.0 0.0 0.0 34.25627252547053" Properties=species:S:1:pos:R:3:initial_magmoms:R:1 pbc="T T T"
Si       0.03422529       0.26857323       2.36611632       0.00000000
Si      -1.35889551       1.82970909      -0.70626197       0.00000000
Si      -1.07773011      -2.26410963      -0.52689602       0.00000000
Si       2.30174442       0.66217221       2.04307949       0.00000000
Si       0.88314606      -2.17202715      -2.15732422       0.00000000
Si       0.94582998       0.00643455      -3.12074817       0.00000000
Si      -1.07452098       1.10273526      -2.88513340       0.00000000
Si       2.73481407       0.57150207      -1.74823559       0.00000000
Si       2.84656347      -1.62847872      -0.96732916       0.00000000
Si       2.71463076       2.07655146       0.16151842       0.00000000
