10
Lattice="16.28999089631971 0.0 0.0 0.0 16.28999089631971 0.0 0.0 0.0 34.25627252547053" Properties=species:S:1:pos:R:3:initial_magmoms:R:1 pbc="T T T"
Si       1.76974560       0.64963217      -1.38463931       0.00000000
Si      -1.06375329       1.84204388       1.08335522       0.00000000
Si       1.80328671      -0.85104157       1.34484587       0.00000000
Si      -0.78315804      -1.80667896      -1.57075374       0.00000000
Si      -2.06931870       0.25853533       2.69508090       0.00000000
Si       3.21435909      -1.17697272      -0.53186318       0.00000000
Si      -3.49039314       0.61270274      -0.12143855       0.00000000
Si       0.66616326      -2.41041894       2.66331847       0.00000000
Si      -2.25707724      -2.91040791      -0.07786455       0.00000000
Si      -3.26728530      -1.23885843       1.30506194       0.00000000
