10
Lattice="16.28999089631971 0.0 0.0 0.0 16.28999089631971 0.0 0.0 0.0 34.25627252547053" Properties=species:S:1:pos:R:3:initial_magmoms:R:1 pbc="T T T"
Si      -0.56272176       1.94864238      -1.19725739       0.00000000
Si       0.20911473       0.23552082       2.36234813       0.00000000
Si      -1.47760074      -1.82387727      -0.41361047       0.00000000
Si       2.08191087      -1.05293673      -0.52802648       0.00000000
Si       1.38551337       3.12147351      -0.82496002       0.00000000
Si       1.90096155      -2.79490788       1.09877056       0.00000000
Si      -0.33941844      -3.46994919       0.84750066       0.00000000
Si      -2.00526642       3.20435703       0.13164693       0.00000000
Si       1.71916515       3.08214945       1.50244670       0.00000000
Si       2.40241662       1.18599345       2.80966679       0.00000000
