10
Lattice="16.28999089631971 0.0 0.0 0.0 16.28999089631971 0.0 0.0 0.0 34.25627252547053" Properties=species:S:1:pos:R:3:initial_magmoms:R:1 pbc="T T T"
Si       1.94823513       1.17283113       0.37229738       0.00000000
Si      -1.44254466       1.25571465       1.32890432       0.00000000
Si      -0.99942408      -0.23969106      -2.09727294       0.00000000
Si       0.56272176      -1.94864238       1.19725739       0.00000000
Si      -0.03841182       1.67487264       3.27568938       0.00000000
Si       2.28188691       1.13350707       2.69970409       0.00000000
Si       0.28290843      -1.75977612      -3.42878075       0.00000000
Si      -2.00961585       3.34849095       0.39867472       0.00000000
Si      -0.91487898      -3.77251965       0.78364693       0.00000000
Si      -3.64262319       0.31592826       1.66543813       0.00000000
