10
Lattice="16.28999089631971 0.0 0.0 0.0 16.28999089631971 0.0 0.0 0.0 34.25627252547053" Properties=species:S:1:pos:R:3:initial_magmoms:R:1 pbc="T T T"
Si       2.02035096      -1.09630071      -0.23561477       0.00000000
Si      -0.28437453       0.72697383       2.17887143       0.00000000
Si       0.48096225       1.82780316      -1.34658057       0.00000000
Si      -1.23427701      -1.79738973      -0.81872537       0.00000000
Si       1.07452098      -1.10273526       2.88513340       0.00000000
Si      -0.06757092      -1.87766685      -2.86142804       0.00000000
Si      -2.55513537       0.24438258       2.36570525       0.00000000
Si      -0.65708973       3.44473227      -0.13901203       0.00000000
Si       2.17280907      -1.20262554      -2.61015814       0.00000000
Si       0.31796451       3.05561304       2.07356759       0.00000000
