10
Lattice="16.28999089631971 0.0 0.0 0.0 16.28999089631971 0.0 0.0 0.0 34.25627252547053" Properties=species:S:1:pos:R:3:initial_magmoms:R:1 pbc="T T T"
Si      -1.60089975      -1.06735338       1.27510139       0.00000000
Si       1.11865059       1.62595377       1.32834595       0.00000000
Si       1.77995943      -1.83860343      -0.01887248       0.00000000
Si      -1.60355502       0.88259220      -1.97121120       0.00000000
Si       2.07959769      -0.97779096      -2.27708563       0.00000000
Si       0.27839610       0.15532515      -3.37890499       0.00000000
Si      -0.22108788      -2.43874332       2.61784183       0.00000000
Si       2.49751764       0.29662461       2.64614438       0.00000000
Si      -3.10769217      -2.02654116      -0.28426012       0.00000000
Si       2.92496724       2.44185471       0.05851283       0.00000000
