10
Lattice="16.28999089631971 0.0 0.0 0.0 16.28999089631971 0.0 0.0 0.0 34.25627252547053" Properties=species:S:1:pos:R:3:initial_magmoms:R:1 pbc="T T T"
Si       1.44254466      -1.25571465      -1.32890432       0.00000000
Si      -0.56707119       2.09277630      -0.93022960       0.00000000
Si      -2.20007853      -0.93978639       0.33653381       0.00000000
Si       1.40413284       0.41915799       1.94678506       0.00000000
Si      -2.57448789       0.28313649       2.36899385       0.00000000
Si       3.39077979      -0.08288352      -0.95660694       0.00000000
Si      -3.44157201       0.10238265      -1.43057700       0.00000000
Si       0.44312058      -1.49540571      -3.42617727       0.00000000
Si       2.00526642      -3.20435703      -0.13164693       0.00000000
Si       1.07632917      -1.35190710       3.43826974       0.00000000
