10
Lattice="16.28999089631971 0.0 0.0 0.0 16.28999089631971 0.0 0.0 0.0 34.25627252547053" Properties=species:S:1:pos:R:3:initial_magmoms:R:1 pbc="T T T"
Si      -1.04604280      -1.56059829      -1.38399327       0.00000000
Si       1.26671040      -1.35648459       1.42533921       0.00000000
Si      -1.46550446       1.36045935       1.42288646       0.00000000
Si       1.89970722       0.69898761      -1.55424704       0.00000000
Si      -1.40944778       0.01531260      -3.21098408       0.00000000
Si       2.58015681       2.57663817      -0.07493906       0.00000000
Si       2.60278362       0.00607617       2.80303134       0.00000000
Si       2.92180698      -2.52631836       0.01800853       0.00000000
Si      -2.76065720      -2.71334385      -0.03926456       0.00000000
Si      -0.10864615      -2.71163340       2.80494970       0.00000000
