10
Lattice="16.28999089631971 0.0 0.0 0.0 16.28999089631971 0.0 0.0 0.0 34.25627252547053" Properties=species:S:1:pos:R:3:initial_magmoms:R:1 pbc="T T T"
Si      -0.58586985      -2.00999052       1.07191362       0.00000000
Si       2.30255892       0.48351978       0.20834677       0.00000000
Si      -0.97231752       1.99642488       0.86288173       0.00000000
Si      -0.74482767      -0.58570695      -2.18914832       0.00000000
Si      -2.76455961       1.79450544      -0.64247675       0.00000000
Si      -1.45319832       1.58585986      -2.79226459       0.00000000
Si       3.45874167      -1.18690569      -0.94804287       0.00000000
Si       2.81098611       2.46592223      -0.97387212       0.00000000
Si       1.20998862      -3.09048993       2.00460968       0.00000000
Si      -0.69348159       2.16014264       3.19076803       0.00000000
