10
Lattice="16.28999089631971 0.0 0.0 0.0 16.28999089631971 0.0 0.0 0.0 34.25627252547053" Properties=species:S:1:pos:R:3:initial_magmoms:R:1 pbc="T T T"
Si       1.35724468       1.35776661      -1.35740556       0.00000000
Si      -1.35770634      -1.35774723      -1.35754258       0.00000000
Si       1.35606105      -1.35852340       1.36042011       0.00000000
Si      -1.35672894       1.35758742       1.36069416       0.00000000
Si       2.71389675      -2.71381204      -0.00061661       0.00000000
Si       2.71443595       2.71416975       0.00034256       0.00000000
Si      -0.00091224      -2.71465912      -2.71446855       0.00000000
Si       2.71423395       0.00085522      -2.71508517       0.00000000
Si      -0.00008145       2.71472361      -2.71505091       0.00000000
Si      -2.71547784       0.00010100      -2.71450281       0.00000000
