10
Lattice="16.28999089631971 0.0 0.0 0.0 16.28999089631971 0.0 0.0 0.0 34.25627252547053" Properties=species:S:1:pos:R:3:initial_magmoms:R:1 pbc="T T T"
Si      -1.35598937       1.35654975      -1.35723428       0.00000000
Si       1.35788553       1.35648459       1.35733704       0.00000000
Si       1.35742941      -1.35734796      -1.35716576       0.00000000
Si      -1.35712642      -1.35900954       1.35795366       0.00000000
Si      -0.00032580      -2.71459818      -2.71330384       0.00000000
Si       0.00131949      -2.71516833       2.71309830       0.00000000
Si      -0.00024435       2.71466334      -2.71409173       0.00000000
Si       2.71495656      -0.00066789      -2.71426301       0.00000000
Si      -2.71368832      -0.00009774      -2.71556475       0.00000000
Si      -2.71479836       2.71453302       0.00023979       0.00000000
