10
Lattice="16.28999089631971 0.0 0.0 0.0 16.28999089631971 0.0 0.0 0.0 34.25627252547053" Properties=species:S:1:pos:R:3:initial_magmoms:R:1 pbc="T T T"
Si      -1.95416469      -1.19630502      -0.34838649       0.00000000
Si       1.71687219      -1.55833887      -0.27127557       0.00000000
Si       0.46384146       1.62673569      -1.64204108       0.00000000
Si      -0.40782015       1.08489771       2.11296233       0.00000000
Si      -1.33335279      -2.71896227       1.47904965       0.00000000
Si      -1.25066475       3.09615885      -1.10233321       0.00000000
Si      -1.16436033       3.14219439       1.21102842       0.00000000
Si      -3.58024878       0.40640292       0.18080471       0.00000000
Si       0.02961522      -1.27445955      -3.47420459       0.00000000
Si       2.32144622      -1.34234813      -2.57569631       0.00000000
