10
Lattice="16.28999089631971 0.0 0.0 0.0 16.28999089631971 0.0 0.0 0.0 34.25627252547053" Properties=species:S:1:pos:R:3:initial_magmoms:R:1 pbc="T T T"
Si      -0.74686392      -2.13978924       0.71523711       0.00000000
Si       1.00817181       0.93954204       2.00193769       0.00000000
Si      -1.73385873       1.15106769      -1.32424547       0.00000000
Si       2.00591706       0.76347972      -1.25730867       0.00000000
Si       3.60430001      -0.48824388       0.09557505       0.00000000
Si      -0.66055950      -2.09375370       3.02859875       0.00000000
Si       0.96764229      -3.60921240       0.17552924       0.00000000
Si      -3.59189613       1.08683622       0.07464446       0.00000000
Si      -0.54739287      -0.99178407      -3.60842074       0.00000000
Si       0.11554497       3.08851884       2.26252530       0.00000000
