10
Lattice="16.28999089631971 0.0 0.0 0.0 16.28999089631971 0.0 0.0 0.0 34.25627252547053" Properties=species:S:1:pos:R:3:initial_magmoms:R:1 pbc="T T T"
Si       1.16297309       1.86968475       0.78422929       0.00000000
Si       0.49445772      -0.47912148      -2.26793779       0.00000000
Si      -2.28550329       0.64239615      -0.26743887       0.00000000
Si       0.06243957      -1.44440172       1.95267714       0.00000000
Si      -0.65373399       3.25627326       1.23017769       0.00000000
Si      -1.36651923      -1.74607623      -2.83172784       0.00000000
Si       2.39108597      -1.86756705      -1.94349645       0.00000000
Si      -2.16606501      -2.30542596       1.79485840       0.00000000
Si      -3.36424338      -0.22962384       1.60689413       0.00000000
Si       1.96201877       1.55320263       2.95285809       0.00000000
