10
Lattice="16.28999089631971 0.0 0.0 0.0 16.28999089631971 0.0 0.0 0.0 34.25627252547053" Properties=species:S:1:pos:R:3:initial_magmoms:R:1 pbc="T T T"
Si       1.24402562      -1.92393045      -0.42765555       0.00000000
Si      -2.22850458      -0.86102424      -0.15781874       0.00000000
Si      -0.06243957       1.44440172      -1.95267714       0.00000000
Si       0.80195574       1.16147700       2.01564020       0.00000000
Si      -3.42668295       1.21477788      -0.34578301       0.00000000
Si       1.10053352       3.31408647      -1.16844785       0.00000000
Si       1.89957920       2.99760435       1.00018095       0.00000000
Si       1.37683310      -2.22638688      -2.75588441       0.00000000
Si      -2.20832127      -2.36607363      -2.06757274       0.00000000
Si      -1.10811096       2.03095575       3.06727410       0.00000000
