10
Lattice="16.28999089631971 0.0 0.0 0.0 16.28999089631971 0.0 0.0 0.0 34.25627252547053" Properties=species:S:1:pos:R:3:initial_magmoms:R:1 pbc="T T T"
Si      -0.41288634      -1.41437925       1.88156108       0.00000000
Si       2.22850458       0.86102424       0.15781874       0.00000000
Si      -1.19817837       2.07580212      -0.18796427       0.00000000
Si       0.02018331      -1.50504939      -1.90975400       0.00000000
Si      -2.71463076      -2.07655146      -0.16151842       0.00000000
Si      -0.11943828       2.94782211      -2.06229727       0.00000000
Si       2.16606501       2.30542596      -1.79485840       0.00000000
Si       3.47253020      -1.06290621      -0.26983681       0.00000000
Si       0.47182356      -3.46059873       1.12997804       0.00000000
Si       0.13193271      -3.70503018      -1.12884758       0.00000000
