10
Lattice="16.28999089631971 0.0 0.0 0.0 16.28999089631971 0.0 0.0 0.0 34.25627252547053" Properties=species:S:1:pos:R:3:initial_magmoms:R:1 pbc="T T T"
Si      -1.36008468      -1.35358497       1.37719884       0.00000000
Si       1.35710591       1.36371735       1.38288539       0.00000000
Si      -1.48346514       1.32341589      -1.32820207       0.00000000
Si       1.46550446      -1.36045935      -1.42288646       0.00000000
Si       2.70409832       2.68967448       0.00562146       0.00000000
Si      -2.71538010      -2.71057455      -0.01007135       0.00000000
Si      -2.72173320       2.71884987       0.04504360       0.00000000
Si      -0.00230838      -2.70936909       2.73727639       0.00000000
Si       2.73221486      -2.71694394       0.00245275       0.00000000
Si       2.71113560       0.00539199       2.73874941       0.00000000
