10
Lattice="16.28999089631971 0.0 0.0 0.0 16.28999089631971 0.0 0.0 0.0 34.25627252547053" Properties=species:S:1:pos:R:3:initial_magmoms:R:1 pbc="T T T"
Si       1.34454382       1.34415306      -1.37206725       0.00000000
Si      -1.37323071      -1.37000529      -1.37134787       0.00000000
Si      -1.45526715       1.31193144       1.38217286       0.00000000
Si       1.34085116      -1.40639715       1.42221846       0.00000000
Si      -1.94637807      -0.65376657       2.61423464       0.00000000
Si      -0.36124704      -2.44393983       2.74105143       0.00000000
Si       2.70410972       2.68714953       0.02130741       0.00000000
Si       2.68301254      -2.73202848      -0.01356549       0.00000000
Si       2.70060085      -0.01216863      -2.73108285       0.00000000
Si      -0.01464471       2.70280422      -2.73135690       0.00000000
