10
Lattice="16.28999089631971 0.0 0.0 0.0 16.28999089631971 0.0 0.0 0.0 34.25627252547053" Properties=species:S:1:pos:R:3:initial_magmoms:R:1 pbc="T T T"
Si      -1.29210651       1.38077298      -1.39477917       0.00000000
Si      -0.49111092      -1.96569801       1.23206179       0.00000000
Si       1.45526715      -1.31193144      -1.38217286       0.00000000
Si       0.68067765       1.79745489       1.47634340       0.00000000
Si       0.14486697       0.74435526       3.68991646       0.00000000
Si      -2.58711264      -2.73735531       0.10992844       0.00000000
Si      -2.66719428       2.70407484      -0.01099627       0.00000000
Si      -2.62899423       0.03319902      -2.75848789       0.00000000
Si       2.78078235       2.62629009       0.18104450       0.00000000
Si       0.08203644      -2.68193673      -2.75352072       0.00000000
