10
Lattice="16.28999089631971 0.0 0.0 0.0 16.28999089631971 0.0 0.0 0.0 34.25627252547053" Properties=species:S:1:pos:R:3:initial_magmoms:R:1 pbc="T T T"
Si      -1.48268322       1.14650649       1.35264393       0.00000000
Si      -0.42795459       0.29919843      -2.28119497       0.00000000
Si       0.11376936      -2.39443452       0.30498376       0.00000000
Si       1.74553866       0.21944259       1.80260032       0.00000000
Si       1.83239694       1.93719051       0.34242589       0.00000000
Si      -0.14199993       0.30309174       3.23471885       0.00000000
Si       1.80885789       0.39936564      -3.02537866       0.00000000
Si      -1.56493143      -1.64164104      -2.88585278       0.00000000
Si      -1.29046122       3.47517828       0.76788903       0.00000000
Si       3.27770180       1.40149386      -1.42447938       0.00000000
