10
Lattice="16.28999089631971 0.0 0.0 0.0 16.28999089631971 0.0 0.0 0.0 34.25627252547053" Properties=species:S:1:pos:R:3:initial_magmoms:R:1 pbc="T T T"
Si      -1.80120159       1.13311611      -1.10181937       0.00000000
Si       2.12612193       0.46613835      -1.03077182       0.00000000
Si      -0.59000751      -2.35157553      -0.00448757       0.00000000
Si      -0.29963826      -0.86081247       2.25821315       0.00000000
Si      -2.07959769       0.97779096       2.27708563       0.00000000
Si       1.63888803      -1.28239767      -2.60686954       0.00000000
Si      -2.08992555      -0.63762318      -2.59070057       0.00000000
Si       1.31105178      -3.10471110      -1.09044628       0.00000000
Si      -0.61067952       3.09860235      -1.72350255       0.00000000
Si       3.67896522      -0.30428091       0.54981348       0.00000000
