10
Lattice="16.28999089631971 0.0 0.0 0.0 16.28999089631971 0.0 0.0 0.0 34.25627252547053" Properties=species:S:1:pos:R:3:initial_magmoms:R:1 pbc="T T T"
Si      -1.14287382       0.49407570      -1.95301970       0.00000000
Si      -1.24636419       1.08743895       1.69678264       0.00000000
Si      -0.20862603      -2.44485207       0.30536058       0.00000000
Si       2.13835572       1.25475354      -0.16789009       0.00000000
Si       3.30936237      -0.63768834      -0.83249640       0.00000000
Si       2.30904234       1.50130269       2.12306793       0.00000000
Si       1.96512786      -1.82855250      -2.36388966       0.00000000
Si      -0.73910988       2.81443959      -2.12447244       0.00000000
Si      -2.19817749      -0.71578260       2.83707182       0.00000000
Si      -0.71214993      -2.52278343       2.60193663       0.00000000
