10
Lattice="16.28999089631971 0.0 0.0 0.0 16.28999089631971 0.0 0.0 0.0 34.25627252547053" Properties=species:S:1:pos:R:3:initial_magmoms:R:1 pbc="T T T"
Si       1.90203669      -0.71501697       1.16382325       0.00000000
Si      -0.87527799      -1.57666023      -1.51436789       0.00000000
Si      -1.62924435       0.05097141       1.72665413       0.00000000
Si       0.61950870       1.95455565      -1.22599842       0.00000000
Si       1.01226060      -1.66030938      -2.94648642       0.00000000
Si      -0.53667405       3.62498112      -0.06960878       0.00000000
Si      -3.42510282       1.13147082       0.79395807       0.00000000
Si       1.10755710      -2.58149259       2.41938486       0.00000000
Si       2.91000229       2.34215991      -0.96959008       0.00000000
Si       2.58033667       0.98215668       2.71169379       0.00000000
