10
Lattice="16.28999089631971 0.0 0.0 0.0 16.28999089631971 0.0 0.0 0.0 34.25627252547053" Properties=species:S:1:pos:R:3:initial_magmoms:R:1 pbc="T T T"
Si      -2.07873432      -1.17895617      -0.05844123       0.00000000
Si      -0.91297305       1.51636835      -1.61744507       0.00000000
Si       1.54587280      -1.49612247      -1.09308401       0.00000000
Si       0.39441348       1.54256267       1.92954014       0.00000000
Si      -1.20765915      -2.10626442       1.98097733       0.00000000
Si       1.29660811       2.34345075      -1.75169547       0.00000000
Si      -3.12256494       0.99671994      -0.03918920       0.00000000
Si      -0.38108826      -0.29178648       3.27098397       0.00000000
Si       2.21481513       0.28018800      -2.48210813       0.00000000
Si      -1.25457435       3.50828675       1.69164420       0.00000000
