10
Lattice="16.28999089631971 0.0 0.0 0.0 16.28999089631971 0.0 0.0 0.0 34.25627252547053" Properties=species:S:1:pos:R:3:initial_magmoms:R:1 pbc="T T T"
Si       1.35772263       1.35640314       1.35565849       0.00000000
Si       1.35700587      -1.35808101      -1.35743981       0.00000000
Si      -1.35809567       1.35721764      -1.35743981       0.00000000
Si      -1.35859740      -1.35746199       1.35706299       0.00000000
Si       2.70847314       0.00047241       2.71381768       0.00000000
Si      -0.00066789       2.71433754      -2.71477686       0.00000000
Si       2.71430496       2.71516833      -0.00054810       0.00000000
Si       2.71440270      -2.71510317      -0.00020554       0.00000000
Si       2.71477737      -0.00063531      -2.71491388       0.00000000
Si      -0.00086337      -2.71521720      -2.71457132       0.00000000
