10
Lattice="16.28999089631971 0.0 0.0 0.0 16.28999089631971 0.0 0.0 0.0 34.25627252547053" Properties=species:S:1:pos:R:3:initial_magmoms:R:1 pbc="T T T"
Si      -1.35605703       1.35632169       1.35901560       0.00000000
Si      -1.35681998      -1.35788553      -1.35730279       0.00000000
Si       1.35859740       1.35746199      -1.35706299       0.00000000
Si       1.36073139      -1.35917244       1.36326338       0.00000000
Si      -2.71446364       0.00000000      -2.71388619       0.00000000
Si       0.00050173       2.71467963      -2.71450281       0.00000000
Si       2.71560327      -0.00061902      -2.71450281       0.00000000
Si       2.71632003       2.71386513      -0.00140451       0.00000000
Si      -2.71524556       2.71497285      -0.00027405       0.00000000
Si      -2.71443106      -2.71614573       0.00000000       0.00000000
