10
Lattice="16.28999089631971 0.0 0.0 0.0 16.28999089631971 0.0 0.0 0.0 34.25627252547053" Properties=species:S:1:pos:R:3:initial_magmoms:R:1 pbc="T T T"
Si      -0.99321759      -1.86988023       1.19783975       0.00000000
Si       1.32183576      -1.31512428      -1.56732811       0.00000000
Si       1.62194643       1.19674485       1.37539011       0.00000000
Si      -1.39025865       1.36539522      -1.55266642       0.00000000
Si       2.70557352      -2.59385670      -0.14103315       0.00000000
Si      -2.76885317       2.61646722      -0.01075648       0.00000000
Si       2.71037907       2.73694806      -0.07666558       0.00000000
Si      -2.75351721      -2.72815146      -0.15175537       0.00000000
Si       0.83476476      -3.63887649       1.13587012       0.00000000
Si       2.67330303       0.02401146      -2.94830200       0.00000000
