10
Lattice="16.28999089631971 0.0 0.0 0.0 16.28999089631971 0.0 0.0 0.0 34.25627252547053" Properties=species:S:1:pos:R:3:initial_magmoms:R:1 pbc="T T T"
Si      -2.18120331       0.73490706       0.13483276       0.00000000
Si       0.30116952      -1.79396883      -1.45178164       0.00000000
Si       1.62559539       1.63825272      -0.73157736       0.00000000
Si       0.73050876      -1.39075875       1.84377639       0.00000000
Si       1.97151354       2.14553961       1.55239237       0.00000000
Si       2.64139092      -1.92000456      -0.79022414       0.00000000
Si      -0.17804970       2.37006468       2.61437167       0.00000000
Si       3.22046784       0.18344169      -1.64937193       0.00000000
Si      -3.27882676      -1.10122029       1.15029202       0.00000000
Si      -1.98882981       2.82786255       1.19139957       0.00000000
