10
Lattice="16.28999089631971 0.0 0.0 0.0 16.28999089631971 0.0 0.0 0.0 34.25627252547053" Properties=species:S:1:pos:R:3:initial_magmoms:R:1 pbc="T T T"
Si      -1.55284329       0.77041926      -1.58058530       0.00000000
Si       2.32661111       0.54180540      -0.69667020       0.00000000
Si      -0.48325539      -2.48530014      -0.30549761       0.00000000
Si      -0.97052466       1.71624924       1.62032260       0.00000000
Si       1.58849491       3.05341389      -0.14918615       0.00000000
Si       2.82589961      -1.80162513       1.35123942       0.00000000
Si      -2.02277721       0.18326250       3.00017086       0.00000000
Si       2.94007622      -1.74851973      -1.29341480       0.00000000
Si       0.99636645      -2.85498540      -2.18257111       0.00000000
Si      -3.67896522       0.30428091      -0.54981348       0.00000000
