10
Lattice="16.28999089631971 0.0 0.0 0.0 16.28999089631971 0.0 0.0 0.0 34.25627252547053" Properties=species:S:1:pos:R:3:initial_magmoms:R:1 pbc="T T T"
Si      -1.47381446       1.23854499      -1.28833117       0.00000000
Si       1.34887669       1.35327546       1.34281923       0.00000000
Si       1.18386876      -1.51176087      -1.34332965       0.00000000
Si      -1.36867880      -1.36190916       1.34792342       0.00000000
Si      -2.30038535      -0.57593295      -2.57833782       0.00000000
Si      -0.43731434      -2.58361029      -2.74380020       0.00000000
Si       2.70522933      -0.00506619       2.70279401       0.00000000
Si      -0.01033741       2.70983452       2.70265698       0.00000000
Si       2.69478744       2.71920936      -0.04201192       0.00000000
Si      -0.01015872      -2.72069064       2.70245144       0.00000000
