10
Lattice="16.28999089631971 0.0 0.0 0.0 16.28999089631971 0.0 0.0 0.0 34.25627252547053" Properties=species:S:1:pos:R:3:initial_magmoms:R:1 pbc="T T T"
Si      -1.35769819       1.35583299      -1.35949519       0.00000000
Si       1.36287027       1.33929864       1.37364304       0.00000000
Si       1.35830907      -1.36088289      -1.36035160       0.00000000
Si      -1.35450210      -1.37542986       1.39344318       0.00000000
Si       2.70905958      -2.71681362      -0.00219240       0.00000000
Si      -2.71553390       2.71112163       0.00154153       0.00000000
Si       0.00102627       2.71232822      -2.71587306       0.00000000
Si       2.71837746       2.71033660       0.00157579       0.00000000
Si      -2.71499355      -0.00263898      -2.71621562       0.00000000
Si       2.71489140      -0.00211770      -2.71655819       0.00000000
