10
Lattice="16.28999089631971 0.0 0.0 0.0 16.28999089631971 0.0 0.0 0.0 34.2284985734139" Properties=species:S:1:pos:R:3:initial_magmoms:R:1 pbc="T T T"
Si      -1.34708526      -1.35828138       1.38616255       0.00000000
Si       1.36472733       1.35674523       1.38842163       0.00000000
Si       1.42425099      -1.41879873      -1.41330919       0.00000000
Si      -1.38508983       1.42882848      -1.46567197       0.00000000
Si       0.16565301       2.84607477      -2.53081176       0.00000000
Si      -2.70974376      -2.72132937      -0.00590784       0.00000000
Si      -2.71800279       2.71536381       0.02076302       0.00000000
Si       2.74307310       2.69703756       0.03226380       0.00000000
Si      -2.70754461      -0.00021177       2.74897098       0.00000000
Si       2.74025493      -2.71976780       0.02848497       0.00000000
