10
Lattice="16.28999089631971 0.0 0.0 0.0 16.28999089631971 0.0 0.0 0.0 34.2284985734139" Properties=species:S:1:pos:R:3:initial_magmoms:R:1 pbc="T T T"
Si      -1.87102053       1.29171457       0.46085276       0.00000000
Si      -0.69546897      -2.05332520      -0.84161079       0.00000000
Si       0.06644691      -0.22649944       2.33671245       0.00000000
Si       2.07731709       1.33094089      -0.94925948       0.00000000
Si       2.34569484      -0.60848365       2.09533294       0.00000000
Si      -0.54612225       3.21788164       0.32445212       0.00000000
Si      -0.17370027      -1.21443907      -3.16004521       0.00000000
Si      -3.12702840       0.83980065      -1.41202904       0.00000000
Si       0.10722078      -3.42220648       1.20340623       0.00000000
Si       3.60738792       0.77696849       0.77921221       0.00000000
