10
Lattice="16.28999089631971 0.0 0.0 0.0 16.28999089631971 0.0 0.0 0.0 34.2284985734139" Properties=species:S:1:pos:R:3:initial_magmoms:R:1 pbc="T T T"
Si       0.88019757       0.79182921      -1.98662317       0.00000000
Si      -1.52309871       1.30957428       1.20193440       0.00000000
Si      -1.61976357      -1.57073297      -0.70976254       0.00000000
Si       1.51045767      -0.82401566       1.65156021       0.00000000
Si      -1.70393400      -2.35177331       1.46484364       0.00000000
Si      -1.94758353       2.97356520      -0.38291443       0.00000000
Si      -2.79529884      -0.39785297       2.21746029       0.00000000
Si       2.02235463       2.69935563      -1.47870619       0.00000000
Si       0.57278898      -3.09120899       1.92312927       0.00000000
Si      -0.27451908       2.42654700       2.82131980       0.00000000
