10
Lattice="16.28999089631971 0.0 0.0 0.0 16.28999089631971 0.0 0.0 0.0 34.2284985734139" Properties=species:S:1:pos:R:3:initial_magmoms:R:1 pbc="T T T"
Si      -1.14337459      -1.39417965      -1.65440117       0.00000000
Si       0.18092977      -1.92982743       1.62578613       0.00000000
Si      -1.09115258       1.60417404       1.63526743       0.00000000
Si       1.62677967       1.22262966      -1.53648393       0.00000000
Si      -1.70891452      -3.47183068      -0.34382546       0.00000000
Si       2.12699670      -3.18292102       1.18482014       0.00000000
Si       3.06741840       0.80181009       2.48427159       0.00000000
Si      -2.48128858       0.02327841      -3.18848911       0.00000000
Si      -0.04036662       3.87423441       1.36270575       0.00000000
Si       3.58715085       2.10533589      -0.33506296       0.00000000
