10
Lattice="16.28999089631971 0.0 0.0 0.0 16.28999089631971 0.0 0.0 0.0 34.2284985734139" Properties=species:S:1:pos:R:3:initial_magmoms:R:1 pbc="T T T"
Si       0.93245589      -1.64913444       1.34553847       0.00000000
Si      -1.79305659       0.89236620       1.20989729       0.00000000
Si      -1.23693228      -1.46370537      -1.55014111       0.00000000
Si       1.90335618       1.58693922      -0.54337772       0.00000000
Si       0.43714215       1.51658271      -3.03986889       0.00000000
Si       2.34044946      -0.29211228       2.59746670       0.00000000
Si      -1.21511997       2.80844487      -1.72367969       0.00000000
Si      -0.49697532       2.36669265       2.54705836       0.00000000
Si       1.95406695      -3.07125144      -0.26872809       0.00000000
Si      -3.10826232       2.04608916      -0.42354368       0.00000000
