10
Lattice="16.28999089631971 0.0 0.0 0.0 16.28999089631971 0.0 0.0 0.0 34.2284985734139" Properties=species:S:1:pos:R:3:initial_magmoms:R:1 pbc="T T T"
Si      -1.40908500       1.28795256      -1.27682640       0.00000000
Si       1.32411636       1.38147345       1.36772022       0.00000000
Si      -1.39750281      -1.33574742       1.36559806       0.00000000
Si       1.37370312      -1.34195391      -1.66428295       0.00000000
Si      -2.43439389      -0.18990882      -2.87416662       0.00000000
Si       2.65720851      -2.68470603      -0.01284254       0.00000000
Si       2.67289578       2.71041165      -0.00292312       0.00000000
Si       2.67517638       0.02537982       2.72378564       0.00000000
Si      -0.03896568      -2.69101026       2.72436752       0.00000000
Si      -2.74250295      -2.68669341       0.00467562       0.00000000
