10
Lattice="16.28999089631971 0.0 0.0 0.0 16.28999089631971 0.0 0.0 0.0 34.2284985734139" Properties=species:S:1:pos:R:3:initial_magmoms:R:1 pbc="T T T"
Si       1.40908500      -1.28795256       1.27682640       0.00000000
Si       0.77004459       1.76723694      -1.27235684       0.00000000
Si      -1.35167904       1.43742960       1.28631796       0.00000000
Si      -1.02530889      -1.47786138      -1.59734022       0.00000000
Si       0.65642184       0.46403694      -3.36941904       0.00000000
Si      -2.61651609      -2.54516589      -0.07747967       0.00000000
Si       0.01158219      -2.62369998       2.64242445       0.00000000
Si      -2.70137070       0.09454716       2.64796947       0.00000000
Si       2.66510916       2.69676063      -0.10754943       0.00000000
Si       2.73320136       0.09352089       2.64454662       0.00000000
