10
Lattice="16.28999089631971 0.0 0.0 0.0 16.28999089631971 0.0 0.0 0.0 34.2284985734139" Properties=species:S:1:pos:R:3:initial_magmoms:R:1 pbc="T T T"
Si      -0.17332560      -1.95098814       1.27593645       0.00000000
Si      -1.05976224       1.18223046       1.77255802       0.00000000
Si       2.03005980       1.26245871      -0.05117163       0.00000000
Si      -1.09708263      -0.61571313      -2.07626766       0.00000000
Si       0.99935892       3.32475642      -0.75508110       0.00000000
Si       0.83028501      -1.48957389       3.31017149       0.00000000
Si      -0.98733690       2.91587742      -2.15554090       0.00000000
Si      -3.22237377      -1.48478463      -1.35517547       0.00000000
Si       3.16544022       0.55170972      -2.02646516       0.00000000
Si       0.24928587      -2.34150831      -3.03028490       0.00000000
