10
Lattice="16.28999089631971 0.0 0.0 0.0 16.28999089631971 0.0 0.0 0.0 34.2284985734139" Properties=species:S:1:pos:R:3:initial_magmoms:R:1 pbc="T T T"
Si       0.11795589       2.28248964       0.34495500       0.00000000
Si       1.05976224      -1.18223046      -1.77255802       0.00000000
Si      -1.19777112      -0.88304832       1.87055426       0.00000000
Si       1.35581670      -0.40956318       2.01910603       0.00000000
Si       0.88643664      -3.13321860      -0.49662156       0.00000000
Si      -1.78360839       2.64272670      -0.94005201       0.00000000
Si       3.08982204       0.08022825      -1.82372965       0.00000000
Si       1.89004725      -2.67180435       1.53761347       0.00000000
Si      -2.02603617       1.28666565      -2.78113552       0.00000000
Si      -0.71021142       2.72652246       2.55094874       0.00000000
