10
Lattice="16.28999089631971 0.0 0.0 0.0 16.28999089631971 0.0 0.0 0.0 34.2284985734139" Properties=species:S:1:pos:R:3:initial_magmoms:R:1 pbc="T T T"
Si      -0.33487353      -2.17565982       0.84838804       0.00000000
Si       2.09631123       0.98795592      -0.52434666       0.00000000
Si      -1.36820687      -0.42349113      -1.96581223       0.00000000
Si      -0.62264941       1.29709125       1.98467214       0.00000000
Si      -2.69592074      -1.59399279       0.86163448       0.00000000
Si      -3.54930497      -0.34722135      -1.08617355       0.00000000
Si       3.00529323       1.79408286       1.46337182       0.00000000
Si       3.34127448      -0.58586985      -1.74052013       0.00000000
Si      -1.13427922       1.47634641      -3.33858116       0.00000000
Si      -1.26001195      -0.25361901       3.69921282       0.00000000
