10
Lattice="16.28999089631971 0.0 0.0 0.0 16.28999089631971 0.0 0.0 0.0 34.2284985734139" Properties=species:S:1:pos:R:3:initial_magmoms:R:1 pbc="T T T"
Si       1.28673081      -0.54191943       1.93302131       0.00000000
Si      -2.27672298       0.73943568      -0.45828562       0.00000000
Si       0.46446048      -1.75223385      -1.63064658       0.00000000
Si       0.93766869       2.26719333      -0.27156906       0.00000000
Si      -1.47670479      -1.61227017       1.24194754       0.00000000
Si      -3.37826907      -1.25203311      -0.04305948       0.00000000
Si       3.20243481       1.55839914      -0.68214013       0.00000000
Si       3.43606599       0.14278185       1.18841413       0.00000000
Si      -0.57278898       3.09120899      -1.92312927       0.00000000
Si      -2.19255255       1.52047602      -2.63289181       0.00000000
