10
Lattice="16.28999089631971 0.0 0.0 0.0 16.28999089631971 0.0 0.0 0.0 34.2284985734139" Properties=species:S:1:pos:R:3:initial_magmoms:R:1 pbc="T T T"
Si       0.79413750       0.85535532       2.01486169       0.00000000
Si      -2.27610396       0.38882601       0.49710076       0.00000000
Si       0.49425489      -2.11161080      -0.96849591       0.00000000
Si       1.24139574       1.65477078      -2.19284999       0.00000000
Si      -1.03581594      -1.55763840      -2.69696760       0.00000000
Si      -1.90482228       0.72382986      -2.93352088       0.00000000
Si      -0.76743819      -3.49706294       0.34762483       0.00000000
Si       3.01511610       0.04445541       2.06445882       0.00000000
Si       0.21844890       3.14447499       1.98477483       0.00000000
Si      -3.04225524      -1.24737417       2.01232878       0.00000000
