10
Lattice="16.28999089631971 0.0 0.0 0.0 16.28999089631971 0.0 0.0 0.0 34.2284985734139" Properties=species:S:1:pos:R:3:initial_magmoms:R:1 pbc="T T T"
Si       1.35980775      -1.30254840      -1.29212654       0.00000000
Si       1.48247145       1.08015732       1.43222387       0.00000000
Si      -1.37220444       1.41859836      -1.25153152       0.00000000
Si      -1.07245215      -1.61658702       1.34411966       0.00000000
Si      -0.48265641       1.81196928       2.61878966       0.00000000
Si      -1.84080258      -0.13453911       3.03295473       0.00000000
Si       3.12205995      -0.76046607       1.60997256       0.00000000
Si       2.50792695      -2.59727760       0.21474972       0.00000000
Si       0.00887805      -2.65816962      -2.61810509       0.00000000
Si      -2.70949941       0.05465295      -2.61855006       0.00000000
