10
Lattice="16.28999089631971 0.0 0.0 0.0 16.28999089631971 0.0 0.0 0.0 34.2284985734139" Properties=species:S:1:pos:R:3:initial_magmoms:R:1 pbc="T T T"
Si       1.06790724       1.40015808       1.51824013       0.00000000
Si      -1.64522484       1.45057563      -0.77667930       0.00000000
Si      -0.64441611      -2.10790971       0.75042602       0.00000000
Si       1.75270626      -0.79047225      -1.31800330       0.00000000
Si      -2.29705290      -2.26696527      -0.89230323       0.00000000
Si      -1.21893183      -1.35091341       2.87382635       0.00000000
Si       0.22437846       0.44377218       3.47600866       0.00000000
Si      -1.35940050      -1.49978772      -2.91093006       0.00000000
Si       3.21385410       0.54796302       1.45419857       0.00000000
Si      -1.93508910       0.78933195      -2.94101693       0.00000000
