10
Lattice="16.28999089631971 0.0 0.0 0.0 16.28999089631971 0.0 0.0 0.0 34.2284985734139" Properties=species:S:1:pos:R:3:initial_magmoms:R:1 pbc="T T T"
Si      -1.41076287       1.54468296       1.03465963       0.00000000
Si       0.84352878       0.95638590      -1.95776853       0.00000000
Si      -1.44331029      -1.79468559      -0.60218231       0.00000000
Si       1.99018188      -0.32154831       1.32601278       0.00000000
Si      -0.22437846      -0.44377218      -3.47600866       0.00000000
Si       2.98947564       0.10419084      -2.02181008       0.00000000
Si      -0.61892226       1.56993246       3.24753330       0.00000000
Si       1.25568207      -0.01488906       3.55452888       0.00000000
Si      -0.86879457      -2.55168189      -2.72558264       0.00000000
Si       3.79561887       0.62925012       0.08882300       0.00000000
