10
Lattice="16.28999089631971 0.0 0.0 0.0 16.28999089631971 0.0 0.0 0.0 34.2284985734139" Properties=species:S:1:pos:R:3:initial_magmoms:R:1 pbc="T T T"
Si       1.35568638       1.35848826      -1.35736610       0.00000000
Si       1.35747828      -1.35698958       1.35712650       0.00000000
Si      -1.35845568      -1.35790182      -1.35678421       0.00000000
Si      -1.35799956       1.35808101       1.35740033       0.00000000
Si       2.71091664      -0.00193851       2.71397917       0.00000000
Si       0.00462636       2.71458189      -2.71343151       0.00000000
Si      -0.00172674       2.71375110       2.71486911       0.00000000
Si       0.00144981      -2.71549413      -2.71367111       0.00000000
Si       2.71495656      -2.71458189       0.00037651       0.00000000
Si      -2.71549413      -2.71441899       0.00000000       0.00000000
