10
Lattice="16.28999089631971 0.0 0.0 0.0 16.28999089631971 0.0 0.0 0.0 34.2284985734139" Properties=species:S:1:pos:R:3:initial_magmoms:R:1 pbc="T T T"
Si       1.35343836       1.35505107       1.35685267       0.00000000
Si      -1.35747828       1.35698958      -1.35712650       0.00000000
Si       1.35747828      -1.35759231      -1.35674998       0.00000000
Si      -1.35904212      -1.35834165       1.35767415       0.00000000
Si       2.71464705       0.00368154       2.71151472       0.00000000
Si      -0.00078192      -2.71389771      -2.71391071       0.00000000
Si       2.71433754       2.71433754       0.00020537       0.00000000
Si       2.71428867      -2.71482624       0.00109531       0.00000000
Si       2.71518462      -0.00061902      -2.71421877       0.00000000
Si       0.00257382      -2.71290402       2.71671745       0.00000000
