10
Lattice="16.28999089631971 0.0 0.0 0.0 16.28999089631971 0.0 0.0 0.0 34.2284985734139" Properties=species:S:1:pos:R:3:initial_magmoms:R:1 pbc="T T T"
Si       1.79305659      -0.89236620      -1.20989729       0.00000000
Si       1.29608127       1.47432645       1.33716107       0.00000000
Si      -1.31520573       1.15372296      -1.63344097       0.00000000
Si      -1.55034699      -1.34711784       1.27569008       0.00000000
Si       0.57793662       1.91607867      -2.93357699       0.00000000
Si       0.55612431      -2.35607157      -2.76003840       0.00000000
Si       2.72551248      -2.54150064       0.13564118       0.00000000
Si       2.57917941       0.04484637       2.69614276       0.00000000
Si      -0.15814332      -2.67221160       2.68721596       0.00000000
Si      -2.61791377       2.76586281      -0.16798121       0.00000000
