10
Lattice="16.28999089631971 0.0 0.0 0.0 16.28999089631971 0.0 0.0 0.0 34.2284985734139" Properties=species:S:1:pos:R:3:initial_magmoms:R:1 pbc="T T T"
Si       1.23110046      -1.25222859       1.47439340       0.00000000
Si      -2.21405535      -0.24628851       0.67885419       0.00000000
Si       0.98487711       2.13105780      -0.07595308       0.00000000
Si       0.08400753      -0.27181494      -2.35991938       0.00000000
Si       0.16443126       2.03851431      -2.22885839       0.00000000
Si      -3.12924384       0.36214299      -1.37653407       0.00000000
Si       1.96431336      -3.09519774       0.18870182       0.00000000
Si      -2.18344644      -2.32792245       1.82773439       0.00000000
Si       2.99318976       0.19927557       2.13476419       0.00000000
Si       3.26607984       1.71880677       0.31746950       0.00000000
