10
Lattice="16.28999089631971 0.0 0.0 0.0 16.28999089631971 0.0 0.0 0.0 34.2284985734139" Properties=species:S:1:pos:R:3:initial_magmoms:R:1 pbc="T T T"
Si      -2.28120273       0.41225103      -0.39342258       0.00000000
Si       1.27224900       1.95465895       0.42977327       0.00000000
Si      -0.27289008      -1.51953120       1.81729469       0.00000000
Si       1.10442942      -0.62578035      -2.03854783       0.00000000
Si       1.58040693      -2.92361517       1.58296626       0.00000000
Si      -3.26607984      -1.71880677      -0.31746950       0.00000000
Si      -2.03497938      -2.97103536       1.15692390       0.00000000
Si       3.42062307      -0.21023874      -1.73490665       0.00000000
Si      -0.72485613      -0.32721723       3.85923114       0.00000000
Si       3.44030139       1.93026141      -0.60916493       0.00000000
