10
Lattice="16.28999089631971 0.0 0.0 0.0 16.28999089631971 0.0 0.0 0.0 34.2284985734139" Properties=species:S:1:pos:R:3:initial_magmoms:R:1 pbc="T T T"
Si      -1.34288244      -1.35830907      -1.39412753       0.00000000
Si       1.37707515       1.35136953      -1.39515438       0.00000000
Si       1.33791399      -1.41745806       1.53408793       0.00000000
Si      -1.55698191       1.41758838       1.43650243       0.00000000
Si      -2.68439652      -2.72216326      -0.01560820       0.00000000
Si      -2.70510111       2.71231758      -0.07037383       0.00000000
Si       2.72935759       2.69384472      -0.00013691       0.00000000
Si       2.73314502      -2.70484862      -0.02026328       0.00000000
Si      -2.70238068      -0.00459378      -2.75546413       0.00000000
Si       0.01391166       2.71207323      -2.75419768       0.00000000
