10
Lattice="16.28999089631971 0.0 0.0 0.0 16.28999089631971 0.0 0.0 0.0 34.2284985734139" Properties=species:S:1:pos:R:3:initial_magmoms:R:1 pbc="T T T"
Si      -0.60953922      -2.23668868      -0.36781965       0.00000000
Si      -0.73845828       0.98885187       2.05826345       0.00000000
Si       2.36104721      -0.58166703      -0.01324644       0.00000000
Si      -0.85338423       1.24677144      -1.94780803       0.00000000
Si       2.69592074       1.59399279      -0.86163448       0.00000000
Si       1.32771386       1.17050166      -2.82744670       0.00000000
Si       1.43590878       1.34037378       2.83757835       0.00000000
Si      -2.65888638      -0.32527872      -2.20346083       0.00000000
Si      -2.90605455      -1.86322251      -0.43100549       0.00000000
Si       2.46184973      -0.75988778       2.37296045       0.00000000
