10
Lattice="16.28999089631971 0.0 0.0 0.0 16.28999089631971 0.0 0.0 0.0 34.2284985734139" Properties=species:S:1:pos:R:3:initial_magmoms:R:1 pbc="T T T"
Si       1.16758575       1.45829709      -1.40223968       0.00000000
Si      -1.57110534      -0.75975908      -1.62602573       0.00000000
Si      -1.11674466       1.52837667       1.65094409       0.00000000
Si       1.42669449      -1.85607350       0.96678448       0.00000000
Si       0.20782782       0.59284197       3.43523979       0.00000000
Si      -1.93269447      -2.94325181      -0.76339863       0.00000000
Si      -3.47017725       0.65238192      -1.53576513       0.00000000
Si       3.34195281       1.80981900      -0.62292479       0.00000000
Si       0.13479975       3.59254773      -1.46412484       0.00000000
Si       1.88872776      -1.24765924       3.25542110       0.00000000
