10
Lattice="16.28999089631971 0.0 0.0 0.0 16.28999089631971 0.0 0.0 0.0 34.2284985734139" Properties=species:S:1:pos:R:3:initial_magmoms:R:1 pbc="T T T"
Si      -1.35681039       1.35723393      -1.35784530       0.00000000
Si       1.35822762       1.35729909       1.35777684       0.00000000
Si      -1.35806472      -1.35936792       1.35651039       0.00000000
Si       1.35793440      -1.35770634      -1.35846141       0.00000000
Si      -2.71171485       0.00192222       2.71562214       0.00000000
Si       0.00035838       2.71850778       2.71041940       0.00000000
Si      -2.71428867       2.71482624      -0.00109531       0.00000000
Si       0.00089595       2.71420722      -2.71531408       0.00000000
Si      -2.71443528      -2.71524978       0.00013691       0.00000000
Si       2.71510181       2.71494027      -0.00082148       0.00000000
