10
Lattice="16.28999089631971 0.0 0.0 0.0 16.28999089631971 0.0 0.0 0.0 34.2284985734139" Properties=species:S:1:pos:R:3:initial_magmoms:R:1 pbc="T T T"
Si       1.34991876      -1.35619137      -1.36096009       0.00000000
Si      -1.36316349       1.36070370      -1.35904330       0.00000000
Si       1.35228244       1.34247519       1.39501747       0.00000000
Si      -1.37707515      -1.35136953       1.39515438       0.00000000
Si      -0.37040202       2.43833607       2.72089333       0.00000000
Si       2.70906677      -2.70974376      -0.00527119       0.00000000
Si       2.70878984       0.00286704      -2.71709396       0.00000000
Si      -2.71995759      -2.70967860       0.00102686       0.00000000
Si      -0.00544345      -2.71217097      -2.71784699       0.00000000
Si       2.70924596       2.72202642      -0.00160874       0.00000000
