10
Lattice="16.28999089631971 0.0 0.0 0.0 16.28999089631971 0.0 0.0 0.0 34.2284985734139" Properties=species:S:1:pos:R:3:initial_magmoms:R:1 pbc="T T T"
Si       1.31460300      -1.21037958      -1.67339800       0.00000000
Si       1.96037118       0.88270623       1.20142097       0.00000000
Si      -1.62677967      -1.22262966       1.53648393       0.00000000
Si      -1.37871067       1.49449347      -1.65214209       0.00000000
Si       2.65077396      -2.64445344      -0.34136101       0.00000000
Si       2.57237019       2.73823497      -0.29963644       0.00000000
Si      -2.77015427      -2.61680931      -0.11791724       0.00000000
Si       3.65837562      -0.94859928       0.99543375       0.00000000
Si      -0.02192634      -2.55772548      -3.05243075       0.00000000
Si      -3.10139513       2.59035435      -0.32626623       0.00000000
