10
Lattice="16.28999089631971 0.0 0.0 0.0 16.28999089631971 0.0 0.0 0.0 34.2284985734139" Properties=species:S:1:pos:R:3:initial_magmoms:R:1 pbc="T T T"
Si       2.19990724       0.22617036      -0.81409107       0.00000000
Si      -1.39834989      -1.85319927       0.53680584       0.00000000
Si       0.20370645       1.07834913       2.12203118       0.00000000
Si      -0.98525178       1.91777283      -1.04551007       0.00000000
Si      -0.23037318      -2.43499662       2.48478501       0.00000000
Si       2.85976881       2.38581711      -0.13301202       0.00000000
Si       2.05203501       2.53733040       2.06250779       0.00000000
Si       0.17153370      -0.55863297       3.83345707       0.00000000
Si      -3.65920641      -1.13523381       0.60659779       0.00000000
Si      -1.24393698      -3.55785003      -1.10287707       0.00000000
