10
Lattice="16.28999089631971 0.0 0.0 0.0 16.28999089631971 0.0 0.0 0.0 34.2284985734139" Properties=species:S:1:pos:R:3:initial_magmoms:R:1 pbc="T T T"
Si      -1.61145567       1.61880246       0.46013396       0.00000000
Si       1.84832856       1.45898127      -0.05952339       0.00000000
Si      -0.03217275      -1.63698210       1.71142589       0.00000000
Si      -0.20370645      -1.07834913      -2.12203118       0.00000000
Si      -1.18895823       0.83942370      -3.16754126       0.00000000
Si      -0.43407963      -3.51334575       0.36275383       0.00000000
Si      -1.69617996       2.70835911      -1.66857178       0.00000000
Si       3.39155098       0.24208569       1.28469895       0.00000000
Si       1.99620079      -0.85217877      -2.93612225       0.00000000
Si      -1.60205634      -2.93154840      -1.58522534       0.00000000
