10
Lattice="16.28999089631971 0.0 0.0 0.0 16.28999089631971 0.0 0.0 0.0 34.2284985734139" Properties=species:S:1:pos:R:3:initial_magmoms:R:1 pbc="T T T"
Si      -1.35703845       1.35697207       1.35767415       0.00000000
Si       1.35745848       1.35718011      -1.35726341       0.00000000
Si      -1.35674523      -1.35760860      -1.35839295       0.00000000
Si       1.35784305      -1.35775521       1.35733187       0.00000000
Si      -2.71334385       0.00188964      -2.71449260       0.00000000
Si      -0.00017919       2.71380227       2.71435568       0.00000000
Si      -2.71450044       2.71393585      -0.00023960       0.00000000
Si      -2.71555929      -0.00245979       2.71401340       0.00000000
Si       2.71519832      -0.00099369       2.71476642       0.00000000
Si       2.71516737       2.71479759      -0.00006846       0.00000000
