10
Lattice="16.28999089631971 0.0 0.0 0.0 16.28999089631971 0.0 0.0 0.0 34.2284985734139" Properties=species:S:1:pos:R:3:initial_magmoms:R:1 pbc="T T T"
Si      -1.85329701       1.40408397       0.23432843       0.00000000
Si       0.20742057      -1.61860698       1.74596246       0.00000000
Si       2.04716430       1.22269482       0.24014728       0.00000000
Si      -0.70340220      -1.05715584      -2.12672049       0.00000000
Si       2.87810091       1.07917992      -1.91036203       0.00000000
Si      -3.61538631      -0.04742019      -0.42604236       0.00000000
Si      -1.58040693       2.92361517      -1.58296626       0.00000000
Si       0.90805347      -2.67595830      -2.58685445       0.00000000
Si      -2.88217341      -1.89038934      -1.71173394       0.00000000
Si       3.55850230      -0.13725954       1.48493578       0.00000000
