10
Lattice="16.28999089631971 0.0 0.0 0.0 16.28999089631971 0.0 0.0 0.0 34.2284985734139" Properties=species:S:1:pos:R:3:initial_magmoms:R:1 pbc="T T T"
Si       0.83093661      -0.14351490      -2.15050931       0.00000000
Si       1.51133800      -1.35995436       1.24478850       0.00000000
Si      -2.04716430      -1.22269482      -0.24014728       0.00000000
Si       0.83131128       2.16627678       0.71140551       0.00000000
Si       3.14278802       0.10339263      -1.57752392       0.00000000
Si       2.30192428       0.27720693       2.72975852       0.00000000
Si      -1.83974373      -2.84130180       1.50581518       0.00000000
Si      -0.43197822       2.63526655       2.64654899       0.00000000
Si       3.28573277      -1.87595640      -0.32219304       0.00000000
Si       0.70921773      -2.43967185      -2.88652513       0.00000000
