10
Lattice="16.28999089631971 0.0 0.0 0.0 16.28999089631971 0.0 0.0 0.0 34.2284985734139" Properties=species:S:1:pos:R:3:initial_magmoms:R:1 pbc="T T T"
Si       0.41547645      -0.85615353      -2.14992743       0.00000000
Si      -2.26870830      -0.50098266       0.43227195       0.00000000
Si       1.92204539      -1.18993563       0.81775352       0.00000000
Si       0.65032938       2.37286656       0.42802761       0.00000000
Si      -1.63334943       0.21493026       2.66287599       0.00000000
Si       1.77740190      -2.51822223      -1.08884338       0.00000000
Si      -2.70905958       1.28568825      -1.30215550       0.00000000
Si       2.52794151       1.92277386      -0.94008624       0.00000000
Si       1.60515144       0.96482412      -2.92027444       0.00000000
Si       3.80388509       0.30356415       0.38137414       0.00000000
