10
Lattice="16.28999089631971 0.0 0.0 0.0 16.28999089631971 0.0 0.0 0.0 34.2284985734139" Properties=species:S:1:pos:R:3:initial_magmoms:R:1 pbc="T T T"
Si       1.23693228       1.46370537       1.55014111       0.00000000
Si       1.20651885      -2.16792207       0.03087412       0.00000000
Si      -0.20608479       1.00473462      -2.28489047       0.00000000
Si      -1.91918843      -1.32444216       1.03934894       0.00000000
Si       2.53405611      -1.62486234      -1.82674176       0.00000000
Si      -2.01779017      -0.58415940      -2.83812600       0.00000000
Si      -2.65515271      -2.13486966      -1.12358532       0.00000000
Si       2.16938817      -0.18542907       2.89567958       0.00000000
Si      -0.55612431       2.35607157       2.76003840       0.00000000
Si       1.61015247      -0.08716779      -3.35942633       0.00000000
