10
Lattice="16.28999089631971 0.0 0.0 0.0 16.28999089631971 0.0 0.0 0.0 34.2284985734139" Properties=species:S:1:pos:R:3:initial_magmoms:R:1 pbc="T T T"
Si       1.91545965      -1.34524449      -0.30138210       0.00000000
Si      -1.48678830      -0.60825231       1.74117047       0.00000000
Si       0.81570546       2.23192548       0.08338067       0.00000000
Si      -2.15644902      -0.45568017      -1.17112873       0.00000000
Si      -3.22004358       0.55741122       0.76466509       0.00000000
Si      -0.28005768       2.94184368       2.12144930       0.00000000
Si       0.95133600      -3.52810449      -0.04956289       0.00000000
Si       3.56835708       0.57941901      -1.02969650       0.00000000
Si       3.03275817       2.21223087       0.85458340       0.00000000
Si      -2.14657891       0.79167771      -3.14724375       0.00000000
