10
Lattice="16.28999089631971 0.0 0.0 0.0 16.28999089631971 0.0 0.0 0.0 34.2284985734139" Properties=species:S:1:pos:R:3:initial_magmoms:R:1 pbc="T T T"
Si      -1.30422627      -1.86901686      -0.08184039       0.00000000
Si      -0.84058029       1.29663513      -1.81469332       0.00000000
Si       2.25859221      -0.44378847       0.74070512       0.00000000
Si      -2.38521601       0.00646713       1.04934367       0.00000000
Si      -1.35192339       1.78707816       2.26945341       0.00000000
Si       0.47677572       0.87024438       3.42576119       0.00000000
Si       2.57523723       1.31722569       2.27879779       0.00000000
Si       3.38155965      -0.81678060      -1.37516493       0.00000000
Si      -2.04731091      -2.25346086      -2.19497215       0.00000000
Si      -0.62180559       3.52592163      -1.13368273       0.00000000
