10
Lattice="16.28999089631971 0.0 0.0 0.0 16.28999089631971 0.0 0.0 0.0 34.2284985734139" Properties=species:S:1:pos:R:3:initial_magmoms:R:1 pbc="T T T"
Si       1.20088251      -1.39707927       1.45775149       0.00000000
Si      -1.28029300      -1.39672089      -1.40974398       0.00000000
Si       1.45880208       1.08450675      -1.57999663       0.00000000
Si      -1.51696463       1.30577382       1.42903035       0.00000000
Si      -1.40494995       0.40777128      -3.14595132       0.00000000
Si       2.59175529       2.57494401      -0.02681804       0.00000000
Si       2.63370204      -2.68825725       0.09539830       0.00000000
Si       2.54884743      -0.04854420       2.82084745       0.00000000
Si      -0.16891590       2.66888844       2.81307757       0.00000000
Si      -2.83392962      -2.67208128       0.03934226       0.00000000
