10
Lattice="16.28999089631971 0.0 0.0 0.0 16.28999089631971 0.0 0.0 0.0 34.2284985734139" Properties=species:S:1:pos:R:3:initial_magmoms:R:1 pbc="T T T"
Si      -1.35557816       1.35512757       1.36082318       0.00000000
Si       1.36026876      -1.36192545       1.36048089       0.00000000
Si      -1.34804873      -1.36311462      -1.38404723       0.00000000
Si       1.35665238       1.34961398      -1.39429525       0.00000000
Si      -2.71403033       2.71174321       0.00030806       0.00000000
Si       0.00213073       2.71274505       2.71801813       0.00000000
Si      -2.71303664      -0.00205254       2.71808659       0.00000000
Si       2.71931088       2.71266197      -0.00222485       0.00000000
Si      -2.71476338      -2.71889874       0.00181411       0.00000000
Si       2.71776333      -2.71743264       0.00776987       0.00000000
