10
Lattice="16.28999089631971 0.0 0.0 0.0 16.28999089631971 0.0 0.0 0.0 34.2284985734139" Properties=species:S:1:pos:R:3:initial_magmoms:R:1 pbc="T T T"
Si       1.87685235       0.74555162       1.14713454       0.00000000
Si       1.38787542      -1.29679803      -1.34891165       0.00000000
Si      -1.49303877      -1.08372483       1.42287948       0.00000000
Si      -1.31637698       1.45769340      -1.32851146       0.00000000
Si       0.55876329       0.95634259       3.06506107       0.00000000
Si       0.39048759      -1.36979352       3.34778863       0.00000000
Si      -3.27714794       0.66743292       1.53641547       0.00000000
Si      -2.66143381      -2.63239884       0.09183511       0.00000000
Si       0.03740184      -2.62721862      -2.70569587       0.00000000
Si      -2.68264111       0.08913698      -2.70429250       0.00000000
