10
Lattice="16.28999089631971 0.0 0.0 0.0 16.28999089631971 0.0 0.0 0.0 34.2284985734139" Properties=species:S:1:pos:R:3:initial_magmoms:R:1 pbc="T T T"
Si      -0.53444232       1.72039734      -1.53141811       0.00000000
Si       2.29319217      -0.53460522       0.42693230       0.00000000
Si      -1.07303859       0.37743930       2.14006961       0.00000000
Si      -1.10659599      -1.76699259      -1.23595755       0.00000000
Si      -2.71763952       2.00665663      -0.51575530       0.00000000
Si      -3.41807273       0.29589156       1.05297189       0.00000000
Si       1.11765690       0.63827478       3.35415514       0.00000000
Si       2.20902174      -1.31564556       2.60153849       0.00000000
Si       2.93290047      -2.13456015      -1.12016247       0.00000000
Si       1.11092913       3.40702811      -1.36410912       0.00000000
