10
Lattice="16.28999089631971 0.0 0.0 0.0 16.28999089631971 0.0 0.0 0.0 34.529650657227435" Properties=species:S:1:pos:R:3:initial_magmoms:R:1 pbc="T T T"
Si      -0.09112137       1.16279649      -2.01646367       0.00000000
Si       1.00755605      -2.09982987      -0.26950407       0.00000000
Si      -1.96832463      -0.35497539       1.24993952       0.00000000
Si       1.27805150       1.23815403       1.55642487       0.00000000
Si       2.32981535       1.16652690      -2.14449968       0.00000000
Si      -1.86766872       2.69376327      -1.31886074       0.00000000
Si      -2.09957316       1.70577477       2.46676509       0.00000000
Si      -3.64500546      -0.73982664      -0.32057346       0.00000000
Si       2.73773324      -1.24968735      -2.21027870       0.00000000
Si       1.11604745       0.10236636       3.62537364       0.00000000
