10
Lattice="16.28999089631971 0.0 0.0 0.0 16.28999089631971 0.0 0.0 0.0 34.529650657227435" Properties=species:S:1:pos:R:3:initial_magmoms:R:1 pbc="T T T"
Si      -2.09232737      -0.98096751      -0.37841065       0.00000000
Si       0.63364842       0.92054790      -2.12795997       0.00000000
Si       1.27031049      -1.67804919       1.24320624       0.00000000
Si      -0.40979613       1.55963718       1.95869553       0.00000000
Si       1.05135660      -0.07729605       3.16519673       0.00000000
Si      -1.18606838       0.14199993      -3.52102497       0.00000000
Si      -1.59051259      -2.87876880      -1.81750371       0.00000000
Si      -3.12845282       0.16425207      -2.17391896       0.00000000
Si      -0.24476377      -3.39885963       1.88870389       0.00000000
Si       0.40208607       3.34949671      -2.04567577       0.00000000
