10
Lattice="16.28999089631971 0.0 0.0 0.0 16.28999089631971 0.0 0.0 0.0 34.529650657227435" Properties=species:S:1:pos:R:3:initial_magmoms:R:1 pbc="T T T"
Si       1.38986280      -1.23472498      -1.41522960       0.00000000
Si       1.35273789       1.34501643       1.36519956       0.00000000
Si      -1.36140417      -1.36863530       1.36254078       0.00000000
Si      -1.39299048       1.27861839      -1.47877110       0.00000000
Si      -0.26969724      -2.23411811      -2.79591714       0.00000000
Si      -2.26031895      -0.59246730      -2.74850790       0.00000000
Si       2.71669959       2.68885998      -0.02412588       0.00000000
Si      -2.72679939       2.67981903      -0.01167103       0.00000000
Si       2.42934399       0.20453724      -2.95554780       0.00000000
Si      -0.00169416       2.70257616       2.72338960       0.00000000
