10
Lattice="16.28999089631971 0.0 0.0 0.0 16.28999089631971 0.0 0.0 0.0 34.529650657227435" Properties=species:S:1:pos:R:3:initial_magmoms:R:1 pbc="T T T"
Si       1.35529542       1.35840681       1.35615279       0.00000000
Si       1.35692442      -1.35764444      -1.35618732       0.00000000
Si      -1.35803214       1.35711990      -1.35673979       0.00000000
Si      -1.35669636      -1.35965137       1.35846628       0.00000000
Si       0.00275301       2.70875007       2.71206387       0.00000000
Si       2.71295289       0.00014661      -2.71341052       0.00000000
Si      -0.00210141      -2.71419812       2.71330694       0.00000000
Si       2.71391400       2.71376739      -0.00006906       0.00000000
Si       0.00057015       2.71393029      -2.71379035       0.00000000
Si       2.71383255      -2.71530445       0.00058700       0.00000000
