10
Lattice="16.28999089631971 0.0 0.0 0.0 16.28999089631971 0.0 0.0 0.0 34.529650657227435" Properties=species:S:1:pos:R:3:initial_magmoms:R:1 pbc="T T T"
Si       1.35459495      -1.35454675       1.35484066       0.00000000
Si      -1.35948195      -1.35583148      -1.35749944       0.00000000
Si       1.35669636       1.35965137      -1.35846628       0.00000000
Si      -1.36347300       1.36421257       1.36433632       0.00000000
Si       2.68819209       0.00584485       2.69510980       0.00000000
Si       2.71251306      -2.71212277      -0.00072512       0.00000000
Si      -0.00195480      -2.71308388      -2.71513701       0.00000000
Si       2.71362078       0.00200693      -2.71465359       0.00000000
Si       2.71199178       2.71805818      -0.00231349       0.00000000
Si      -2.71651714       0.00159479      -2.71520607       0.00000000
