10
Lattice="16.28999089631971 0.0 0.0 0.0 16.28999089631971 0.0 0.0 0.0 34.529650657227435" Properties=species:S:1:pos:R:3:initial_magmoms:R:1 pbc="T T T"
Si      -0.32866704       2.19089097       0.72301676       0.00000000
Si       1.66698828      -0.52963677      -1.54799963       0.00000000
Si       1.28075238      -0.89653644       1.75282964       0.00000000
Si      -2.29570083      -0.81974538      -0.41670406       0.00000000
Si      -1.57944582       1.22215725       2.53665314       0.00000000
Si      -2.20850046      -1.07921250       2.27250117       0.00000000
Si       1.57164291      -2.84897504      -1.01503418       0.00000000
Si      -1.00486494       2.99698533      -1.43477685       0.00000000
Si      -0.29745540      -2.29439274       2.79010092       0.00000000
Si       1.92251322       0.96881517       3.06399026       0.00000000
