10
Lattice="16.28999089631971 0.0 0.0 0.0 16.28999089631971 0.0 0.0 0.0 34.529650657227435" Properties=species:S:1:pos:R:3:initial_magmoms:R:1 pbc="T T T"
Si       1.91104506      -1.21518024       0.51759975       0.00000000
Si      -2.03475132      -0.43056099       1.18108736       0.00000000
Si       0.62905464       2.30136975       0.26415198       0.00000000
Si      -0.08720037       0.25946712      -2.68920523       0.00000000
Si      -2.19142854       1.27456218      -1.92530534       0.00000000
Si      -2.72904741       1.61977986       0.40762275       0.00000000
Si       2.20850046       1.07921250      -2.27250117       0.00000000
Si       3.48925284       0.18267606      -0.51967153       0.00000000
Si      -3.13580871      -1.69588804      -0.47146811       0.00000000
Si      -0.28437453      -2.11353695      -2.91440773       0.00000000
