10
Lattice="16.28999089631971 0.0 0.0 0.0 16.28999089631971 0.0 0.0 0.0 34.529650657227435" Properties=species:S:1:pos:R:3:initial_magmoms:R:1 pbc="T T T"
Si       1.40266674       0.12191436      -1.90248123       0.00000000
Si      -2.35129860      -0.11611512      -0.39836880       0.00000000
Si       1.12096377       1.98236268       0.91831657       0.00000000
Si       1.05122628      -1.94966376       1.19652212       0.00000000
Si       2.97373950       0.82194453      -0.28404107       0.00000000
Si      -0.31161141      -1.64520203       3.14762112       0.00000000
Si       3.23838684      -0.90382621       1.39807181       0.00000000
Si      -3.02567202       2.21491872      -0.47847764       0.00000000
Si       2.38742982       0.79345332       2.98799046       0.00000000
Si      -2.30223312      -0.00355122       3.19503036       0.00000000
