10
Lattice="16.28999089631971 0.0 0.0 0.0 16.28999089631971 0.0 0.0 0.0 34.529650657227435" Properties=species:S:1:pos:R:3:initial_magmoms:R:1 pbc="T T T"
Si      -0.23835528      -2.13543559      -0.91693539       0.00000000
Si      -1.36283769       0.30446173       1.95109900       0.00000000
Si       2.18716056       1.04583755       0.20154968       0.00000000
Si      -1.05122628       1.94966376      -1.19652212       0.00000000
Si       1.33620354       2.74311708       1.79146834       0.00000000
Si       0.29672235       1.30385486       3.33178654       0.00000000
Si       1.92251322       2.77160829      -1.48056319       0.00000000
Si       0.35144046       2.07157812      -3.09900335       0.00000000
Si       1.75814712      -3.26506564      -0.53099726       0.00000000
Si      -0.11130957      -2.02867093      -3.24502932       0.00000000
