10
Lattice="16.28999089631971 0.0 0.0 0.0 16.28999089631971 0.0 0.0 0.0 34.529650657227435" Properties=species:S:1:pos:R:3:initial_magmoms:R:1 pbc="T T T"
Si      -1.66534299      -0.87096114      -1.49207680       0.00000000
Si       1.44739908      -1.27772244       1.42504984       0.00000000
Si      -1.25499789       1.44627507       1.45113700       0.00000000
Si       1.34509788       1.19827611      -1.62449809       0.00000000
Si      -0.47213307       0.97225236      -3.26196409       0.00000000
Si      -3.43891674       0.73792071      -1.20197954       0.00000000
Si      -2.62282032       2.66377338      -0.01393617       0.00000000
Si       2.65834881       2.63243142      -0.06153532       0.00000000
Si      -2.66229099      -2.68796403      -0.02959538       0.00000000
Si       0.08343738      -2.62156599       2.81437528       0.00000000
