10
Lattice="16.28999089631971 0.0 0.0 0.0 16.28999089631971 0.0 0.0 0.0 34.529650657227435" Properties=species:S:1:pos:R:3:initial_magmoms:R:1 pbc="T T T"
Si      -0.11505627      -1.85051142       1.56764702       0.00000000
Si       0.73106262       1.87688493       1.60966962       0.00000000
Si      -2.46008322       0.90577287       0.19260650       0.00000000
Si       0.06419889      -1.58133546      -2.20478849       0.00000000
Si       0.06268392      -3.32612478      -0.23052008       0.00000000
Si       2.54148435       0.49179510       2.17861500       0.00000000
Si      -2.42388684       1.35216774      -2.23320640       0.00000000
Si       1.96366176      -1.69648947       2.66783136       0.00000000
Si      -0.65746440       1.49780034       3.50079059       0.00000000
Si       3.93840072       0.72550773       0.26874442       0.00000000
