10
Lattice="16.28999089631971 0.0 0.0 0.0 16.28999089631971 0.0 0.0 0.0 34.529650657227435" Properties=species:S:1:pos:R:3:initial_magmoms:R:1 pbc="T T T"
Si       0.07338645      -0.39408768       2.27308817       0.00000000
Si      -2.15200674       0.85838526      -0.30565664       0.00000000
Si       0.13755276      -2.13700365      -0.96980031       0.00000000
Si       1.91251116       1.20215966      -0.67878425       0.00000000
Si      -2.61868266      -0.27533358      -2.32602216       0.00000000
Si       0.04341285       1.75674196       3.12635085       0.00000000
Si      -1.98166221      -1.40227578       2.74086161       0.00000000
Si       2.28351591      -2.12289651      -1.97067732       0.00000000
Si       2.62511721       0.09656712      -2.60654120       0.00000000
Si      -3.52126269      -0.33964650       1.25715622       0.00000000
