10
Lattice="16.28999089631971 0.0 0.0 0.0 16.28999089631971 0.0 0.0 0.0 34.529650657227435" Properties=species:S:1:pos:R:3:initial_magmoms:R:1 pbc="T T T"
Si      -0.07338645       0.39408768      -2.27308817       0.00000000
Si      -0.02997360       2.15082964       0.85326267       0.00000000
Si      -2.05504866      -1.00818810       0.46777344       0.00000000
Si       1.88462268      -1.15670403       0.82788337       0.00000000
Si      -1.41174027      -3.22711416      -0.12102649       0.00000000
Si       0.55680849       1.77516270       3.05577220       0.00000000
Si       3.42217062       0.62325540       0.96524239       0.00000000
Si      -2.22539319       1.25247294      -2.57874481       0.00000000
Si       0.06416631      -1.74291597      -3.24288848       0.00000000
Si       1.39227372      -1.60511886       3.06820288       0.00000000
