10
Lattice="16.28999089631971 0.0 0.0 0.0 16.28999089631971 0.0 0.0 0.0 34.529650657227435" Properties=species:S:1:pos:R:3:initial_magmoms:R:1 pbc="T T T"
Si       1.99650240      -1.12963005       0.38593812       0.00000000
Si       0.12704571       0.10676466      -2.32809394       0.00000000
Si       0.23835528       2.13543559       0.91693539       0.00000000
Si       1.43452998      -3.32684154      -0.48244855       0.00000000
Si       3.52984752      -0.54051849      -1.39296142       0.00000000
Si       1.98632115      -1.20793608      -3.09903788       0.00000000
Si      -1.94380425      -0.62703468      -3.34430212       0.00000000
Si      -1.12448241       2.43989732       2.86803439       0.00000000
Si       2.35874313      -1.40555007       2.83222712       0.00000000
Si       1.15085592       2.17234548      -3.11146856       0.00000000
