10
Lattice="16.28999089631971 0.0 0.0 0.0 16.28999089631971 0.0 0.0 0.0 34.529650657227435" Properties=species:S:1:pos:R:3:initial_magmoms:R:1 pbc="T T T"
Si      -1.36099692      -1.35358334       1.39365546       0.00000000
Si       1.35570267       1.36435266       1.39790261       0.00000000
Si      -1.38080556       1.30826619      -1.55817898       0.00000000
Si       1.34420193      -1.41641061      -1.52836261       0.00000000
Si       2.68995141       2.70738171       0.02533097       0.00000000
Si       2.68664454      -2.71420147       0.02828325       0.00000000
Si      -2.71381626       2.70532917       0.00916417       0.00000000
Si      -2.71450044      -2.71536080       0.00653647       0.00000000
Si       2.70891297       0.00415395       2.75623077       0.00000000
Si      -0.00259011      -2.71183372       2.75709401       0.00000000
