10
Lattice="16.28999089631971 0.0 0.0 0.0 16.28999089631971 0.0 0.0 0.0 34.529650657227435" Properties=species:S:1:pos:R:3:initial_magmoms:R:1 pbc="T T T"
Si       0.34209000      -0.83031759       2.13786999       0.00000000
Si      -2.08298601      -0.67404762      -0.82850490       0.00000000
Si      -0.51730524       2.26380501       0.63496610       0.00000000
Si       2.00575512      -0.38348289      -1.32476532       0.00000000
Si      -1.16489790       2.66694993      -1.67420558       0.00000000
Si      -2.21938218       0.80303184      -2.66610488       0.00000000
Si       2.66354532      -0.31672647       2.50260689       0.00000000
Si       3.46662603      -1.14790743       0.45710377       0.00000000
Si       1.55411487      -2.20806552      -2.84742017       0.00000000
Si      -3.81344013      -0.37005993       0.85733718       0.00000000
