10
Lattice="16.28999089631971 0.0 0.0 0.0 16.28999089631971 0.0 0.0 0.0 34.529650657227435" Properties=species:S:1:pos:R:3:initial_magmoms:R:1 pbc="T T T"
Si       0.85722867      -1.66397952       1.41992909       0.00000000
Si       0.80308071      -0.83118096      -2.04550312       0.00000000
Si       1.39541769       1.93464927       0.12900285       0.00000000
Si      -2.32145532      -0.51359112      -0.36473690       0.00000000
Si      -1.16416485      -2.47770248       2.17464408       0.00000000
Si       3.15292950      -0.32928606      -1.74961838       0.00000000
Si      -2.66354532       0.31672647      -2.50260689       0.00000000
Si      -2.41680069      -2.83292939       0.16822855       0.00000000
Si       0.52339770      -3.20397326      -1.85596976       0.00000000
Si       3.63962583       1.15409763       0.11536363       0.00000000
