10
Lattice="16.28999089631971 0.0 0.0 0.0 16.28999089631971 0.0 0.0 0.0 34.529650657227435" Properties=species:S:1:pos:R:3:initial_magmoms:R:1 pbc="T T T"
Si       1.14834726      -1.77782544      -0.98806651       0.00000000
Si      -0.57288672      -0.06783156       2.27053298       0.00000000
Si       1.79418060       0.92667294       1.20522360       0.00000000
Si       0.77748912       2.05371288      -1.18457486       0.00000000
Si       0.17572023      -0.95799861      -2.98073923       0.00000000
Si      -1.87440885       0.22099014      -2.59297104       0.00000000
Si      -1.68386472       2.37042306      -1.39896958       0.00000000
Si      -1.40463783       2.12724594       2.35077993       0.00000000
Si      -2.96016993       1.98505053       0.58258459       0.00000000
Si       1.57133340       0.94436388      -3.18436069       0.00000000
