10
Lattice="16.28999089631971 0.0 0.0 0.0 16.28999089631971 0.0 0.0 0.0 34.529650657227435" Properties=species:S:1:pos:R:3:initial_magmoms:R:1 pbc="T T T"
Si      -1.87690122      -0.83341269      -1.23602407       0.00000000
Si       0.79198722       1.86369003      -1.32652633       0.00000000
Si      -0.23726385       0.40891158       2.38606925       0.00000000
Si       1.78417854      -1.66206870      -0.10593703       0.00000000
Si      -0.99520497       2.62208727       1.80210347       0.00000000
Si      -0.50096637      -2.06677746      -2.73433550       0.00000000
Si       2.21545629       0.65809971      -2.75198017       0.00000000
Si       0.77537142      -3.44386890      -1.23018855       0.00000000
Si       3.54217905      -0.67096881      -1.31247275       0.00000000
Si       2.66667300       2.83320567      -0.03863870       0.00000000
