10
Lattice="16.28999089631971 0.0 0.0 0.0 16.28999089631971 0.0 0.0 0.0 34.529650657227435" Properties=species:S:1:pos:R:3:initial_magmoms:R:1 pbc="T T T"
Si      -1.76407668      -1.06111431      -1.17075712       0.00000000
Si      -1.31792616       1.34216568       1.44148941       0.00000000
Si       1.37534841      -1.39261581       1.42882048       0.00000000
Si       1.35565380       1.28027997      -1.59862155       0.00000000
Si       2.58502752       2.55520053       0.07764342       0.00000000
Si      -0.88137045      -1.53922581      -3.27645274       0.00000000
Si      -2.62642041       2.65828365      -0.06738120       0.00000000
Si      -3.53856267       0.69105438      -1.38443401       0.00000000
Si      -2.68276752      -0.02759526       2.80610197       0.00000000
Si       0.03059262       2.68918578       2.81690976       0.00000000
