10
Lattice="16.28999089631971 0.0 0.0 0.0 16.28999089631971 0.0 0.0 0.0 34.529650657227435" Properties=species:S:1:pos:R:3:initial_magmoms:R:1 pbc="T T T"
Si      -1.35778779       1.35731538       1.36426726       0.00000000
Si       1.35679410      -1.36013355       1.36426726       0.00000000
Si       1.36484136       1.36976094      -1.36461256       0.00000000
Si      -1.36609569      -1.38855960      -1.36762009       0.00000000
Si       2.71456560      -2.71156824       0.00276237       0.00000000
Si      -2.71272483      -2.71401174       0.00987549       0.00000000
Si      -2.71533123       2.71308321       0.00193366       0.00000000
Si       2.71336014       2.71678104       0.01080779       0.00000000
Si       0.00060273       2.71417464       2.72197388       0.00000000
Si      -2.71476108      -0.00148239       2.72166312       0.00000000
