10
Lattice="16.28999089631971 0.0 0.0 0.0 16.28999089631971 0.0 0.0 0.0 34.529650657227435" Properties=species:S:1:pos:R:3:initial_magmoms:R:1 pbc="T T T"
Si       1.35839052       1.35685926       1.35770662       0.00000000
Si      -1.35697329      -1.35879777       1.35739586       0.00000000
Si      -1.35754344       1.35576783      -1.36233360       0.00000000
Si       1.35778779      -1.35731538      -1.36426726       0.00000000
Si       0.00003258       2.71424118       2.71468812       0.00000000
Si      -2.71484253       2.71409448      -0.00027624       0.00000000
Si       2.71639008       2.71259685       0.00072512       0.00000000
Si      -2.71495656      -0.00021177       2.71527513       0.00000000
Si       2.71591767      -0.00102627       2.71486077       0.00000000
Si       0.00081450      -2.71606428       2.71527513       0.00000000
