10
Lattice="16.28999089631971 0.0 0.0 0.0 16.28999089631971 0.0 0.0 0.0 34.529650657227435" Properties=species:S:1:pos:R:3:initial_magmoms:R:1 pbc="T T T"
Si      -1.50219864       0.64040877      -1.62712061       0.00000000
Si       0.81609642       1.92585267       1.18804336       0.00000000
Si       1.77357375      -1.60888185      -0.29009726       0.00000000
Si      -1.95650393      -0.72602901       1.21697232       0.00000000
Si      -0.55718316      -2.02468410       2.63948423       0.00000000
Si       2.18391885       0.70835436       2.65311654       0.00000000
Si       2.96678367       0.23433165      -2.05998456       0.00000000
Si       0.77662575      -3.42588474       1.17238416       0.00000000
Si       3.43891674      -0.73792071       1.20197954       0.00000000
Si      -1.85869552       2.91942864      -1.55118987       0.00000000
