10
Lattice="16.28999089631971 0.0 0.0 0.0 16.28999089631971 0.0 0.0 0.0 34.529650657227435" Properties=species:S:1:pos:R:3:initial_magmoms:R:1 pbc="T T T"
Si       1.42346907      -1.20559032      -1.42545384       0.00000000
Si      -0.79198722      -1.86369003       1.32652633       0.00000000
Si      -1.29257892       1.51241247      -1.40432168       0.00000000
Si       1.87468578       0.96951564       1.28788763       0.00000000
Si       0.53067933       1.80973755       3.11913415       0.00000000
Si      -1.78719219       0.75839724       3.12862981       0.00000000
Si       2.75019183      -2.53465884       0.01405358       0.00000000
Si       0.06784785      -2.55813273      -2.78143397       0.00000000
Si      -2.66888844      -2.69710272       0.09050226       0.00000000
Si      -2.65118121       0.15641658      -2.77798101       0.00000000
