10
Lattice="16.28999089631971 0.0 0.0 0.0 16.28999089631971 0.0 0.0 0.0 34.529650657227435" Properties=species:S:1:pos:R:3:initial_magmoms:R:1 pbc="T T T"
Si      -0.71260605       1.10559254       1.92775694       0.00000000
Si      -0.34160130      -2.21946363       0.63586387       0.00000000
Si       2.22759234       0.73454868      -0.09644137       0.00000000
Si      -1.48372578      -0.14343345      -1.83438872       0.00000000
Si      -2.62511721      -0.09656712       2.60654120       0.00000000
Si      -2.48756445      -2.23357077       1.63674089       0.00000000
Si      -0.61726068       3.42493082       1.39479149       0.00000000
Si       3.19442013       0.31721517       2.02475079       0.00000000
Si       3.35539791      -0.29564721      -1.88210872       0.00000000
Si      -1.06539858      -3.50024859      -1.26230114       0.00000000
