10
Lattice="16.28999089631971 0.0 0.0 0.0 16.28999089631971 0.0 0.0 0.0 34.529650657227435" Properties=species:S:1:pos:R:3:initial_magmoms:R:1 pbc="T T T"
Si      -0.49234896      -0.44841483       2.24031952       0.00000000
Si       1.53754794       1.77995943       0.13735903       0.00000000
Si      -1.88462268       1.15670403      -0.82788337       0.00000000
Si       0.53642970      -1.92580380      -1.36582110       0.00000000
Si       3.62763639       0.79460991      -0.10037775       0.00000000
Si      -1.49833791      -2.33175060      -2.52477494       0.00000000
Si       1.20713787       3.10817828      -1.77334026       0.00000000
Si      -1.05924096      -2.69702127       2.42439719       0.00000000
Si      -1.91459628       3.30753367       0.02537931       0.00000000
Si       1.73315826      -1.25573094      -3.24540915       0.00000000
