10
Lattice="16.28999089631971 0.0 0.0 0.0 16.28999089631971 0.0 0.0 0.0 34.529650657227435" Properties=species:S:1:pos:R:3:initial_magmoms:R:1 pbc="T T T"
Si      -0.56689200      -2.24860644       0.18407767       0.00000000
Si       0.49234896       0.44841483      -2.24031952       0.00000000
Si       1.54352637       0.66741759       1.70607646       0.00000000
Si      -1.85927544       1.31470074       0.77094394       0.00000000
Si      -0.55179117      -2.11890546       2.61658933       0.00000000
Si      -0.83546523       3.38028156      -0.01243068       0.00000000
Si       0.01018125       0.07830603       3.48497600       0.00000000
Si       2.02989690       2.22837426      -2.10296049       0.00000000
Si      -1.39227372       1.60511886      -3.06820288       0.00000000
Si      -2.53428417      -2.66028732      -1.06475690       0.00000000
