10
Lattice="16.28999089631971 0.0 0.0 0.0 16.28999089631971 0.0 0.0 0.0 34.529650657227435" Properties=species:S:1:pos:R:3:initial_magmoms:R:1 pbc="T T T"
Si      -1.10192076      -1.38038202       1.64570621       0.00000000
Si       1.45904643      -1.50783498      -1.39800275       0.00000000
Si       1.54712646       1.29907441       1.59872514       0.00000000
Si      -1.94729031       1.23921192      -1.38508865       0.00000000
Si      -0.33912522      -0.18586890      -3.75296077       0.00000000
Si       1.98892755       0.11243392      -3.26723190       0.00000000
Si      -2.01406302      -3.34761129       0.32865340       0.00000000
Si       2.88015345      -2.75838570       0.11446586       0.00000000
Si      -2.51157591       0.00012423       3.13362422       0.00000000
Si       2.70394452       2.21003891      -2.01221652       0.00000000
