10
Lattice="16.28999089631971 0.0 0.0 0.0 16.28999089631971 0.0 0.0 0.0 34.529650657227435" Properties=species:S:1:pos:R:3:initial_magmoms:R:1 pbc="T T T"
Si      -1.15774659       1.51384599      -1.31302523       0.00000000
Si       1.08961596       0.24000057       2.06960483       0.00000000
Si       1.55155638      -1.22522303      -1.30598118       0.00000000
Si      -1.98936738      -0.66264462       1.38021997       0.00000000
Si      -0.81537966      -0.69509430       3.40151779       0.00000000
Si      -2.53420272      -2.62650905       0.14050123       0.00000000
Si      -2.50229061       0.14248863      -2.67718890       0.00000000
Si       0.21076002      -2.57360316      -2.68143605       0.00000000
Si       0.87433221       2.66605398       2.51493398       0.00000000
Si      -2.55314799       2.76768729       0.17040392       0.00000000
