10
Lattice="16.28999089631971 0.0 0.0 0.0 16.28999089631971 0.0 0.0 0.0 34.529650657227435" Properties=species:S:1:pos:R:3:initial_magmoms:R:1 pbc="T T T"
Si      -1.17398772       0.03244968      -2.02129782       0.00000000
Si      -0.58150413       1.70067600       1.51788976       0.00000000
Si      -0.21449043      -2.07932795       1.22666653       0.00000000
Si       1.90499562       0.93509487      -1.33191296       0.00000000
Si       1.57185046       2.68596036       1.39755386       0.00000000
Si       0.81537966       0.69509430      -3.40151779       0.00000000
Si       3.38583482       1.09718037       0.74680770       0.00000000
Si       0.19020204      -1.36589695       3.46943765       0.00000000
Si      -0.97498908       0.67272813       3.59346822       0.00000000
Si       1.68971187       3.36114828      -0.88658381       0.00000000
