10
Lattice="16.28999089631971 0.0 0.0 0.0 16.28999089631971 0.0 0.0 0.0 34.529650657227435" Properties=species:S:1:pos:R:3:initial_magmoms:R:1 pbc="T T T"
Si      -1.92542913      -0.87027696       1.09610984       0.00000000
Si      -0.68025411       1.38101733      -1.84564539       0.00000000
Si       0.76657482       1.05191046       2.02271354       0.00000000
Si       1.95629446      -1.19237913      -0.83240675       0.00000000
Si       3.58173836       0.43831503      -0.43055045       0.00000000
Si       3.04411949       0.78353271       1.90237764       0.00000000
Si      -3.46265127      -1.43705982      -0.54107993       0.00000000
Si       2.63735819      -2.53213519       1.02328677       0.00000000
Si      -2.52952749       0.66446910       2.81682689       0.00000000
Si       0.23672628       3.30553422       2.03635276       0.00000000
