10
Lattice="16.28999089631971 0.0 0.0 0.0 16.28999089631971 0.0 0.0 0.0 34.529650657227435" Properties=species:S:1:pos:R:3:initial_magmoms:R:1 pbc="T T T"
Si       0.60409836      -1.53474606      -1.72071704       0.00000000
Si       0.39688956       2.21819301      -0.91824751       0.00000000
Si       2.07935334      -0.06843429       1.26254285       0.00000000
Si      -2.21890977      -0.38397159       0.93140332       0.00000000
Si       3.29610231       0.38744136      -0.79411335       0.00000000
Si       1.07751834      -3.48888536      -0.49746896       0.00000000
Si       2.52952749      -0.66446910      -2.81682689       0.00000000
Si       2.76625377       2.64106512      -0.78047413       0.00000000
Si      -3.85628283       0.54731142      -0.53058291       0.00000000
Si       2.15464572       1.80157626       2.81561835       0.00000000
