10
Lattice="16.28999089631971 0.0 0.0 0.0 16.28999089631971 0.0 0.0 0.0 34.529650657227435" Properties=species:S:1:pos:R:3:initial_magmoms:R:1 pbc="T T T"
Si       0.74562588      -0.09102852       2.35057275       0.00000000
Si       2.51020755       0.10793754      -0.27710060       0.00000000
Si      -1.48727700       2.05004763      -0.02693314       0.00000000
Si      -0.71501697      -2.09760498      -1.25501538       0.00000000
Si       2.61030960      -0.79501390      -2.49746197       0.00000000
Si      -1.15681806      -0.91096449       3.61094166       0.00000000
Si       0.87653232      -2.31320348      -3.08256723       0.00000000
Si      -1.24489809      -3.71787389       0.61421377       0.00000000
Si      -3.01457853       1.78342920      -1.90482924       0.00000000
Si      -0.28009026       3.82901337      -1.15847043       0.00000000
