10
Lattice="16.28999089631971 0.0 0.0 0.0 16.28999089631971 0.0 0.0 0.0 34.529650657227435" Properties=species:S:1:pos:R:3:initial_magmoms:R:1 pbc="T T T"
Si       1.35713619      -1.35687555      -1.35746491       0.00000000
Si      -1.35923760      -1.35677781       1.35635997       0.00000000
Si      -1.35786924       1.35804843      -1.35763756       0.00000000
Si       1.35804843       1.35940050       1.35787927       0.00000000
Si       2.71450761      -2.71410948       0.00027624       0.00000000
Si      -2.71536381      -2.71406061      -0.00041436       0.00000000
Si       2.71495453      -0.00156384      -2.71475718       0.00000000
Si      -0.00149868       2.71454931      -2.71541325       0.00000000
Si      -0.00270414      -2.71492398      -2.71513701       0.00000000
Si      -2.71625976      -0.00104256      -2.71482624       0.00000000
