10
Lattice="16.28999089631971 0.0 0.0 0.0 16.28999089631971 0.0 0.0 0.0 34.529650657227435" Properties=species:S:1:pos:R:3:initial_magmoms:R:1 pbc="T T T"
Si       1.53709086      -1.64978604       0.82311827       0.00000000
Si      -2.10310416       0.07899021       1.16765532       0.00000000
Si      -1.27951434      -0.63403938      -1.96608488       0.00000000
Si       0.98662081       1.84443525      -1.36357667       0.00000000
Si       1.36502937       1.68539598       2.78854709       0.00000000
Si      -2.36835423      -2.57948892      -0.82077025       0.00000000
Si      -2.41383591       1.42938234      -2.36614563       0.00000000
Si      -3.58901280       1.06464924      -0.41563364       0.00000000
Si       1.34504479      -3.47885982      -0.76590261       0.00000000
Si       0.94659107      -2.21377842       3.07189756       0.00000000
