10
Lattice="16.28999089631971 0.0 0.0 0.0 16.28999089631971 0.0 0.0 0.0 34.529650657227435" Properties=species:S:1:pos:R:3:initial_magmoms:R:1 pbc="T T T"
Si       1.31616684       1.58446314      -1.19533085       0.00000000
Si       1.46433521      -1.22895018       1.42715269       0.00000000
Si      -1.26877923       1.47289293       1.41882069       0.00000000
Si      -0.78416802      -1.95115104      -1.20579955       0.00000000
Si       0.10495647      -2.59260237       2.79800131       0.00000000
Si      -2.70140328      -2.71428867      -0.04592791       0.00000000
Si      -2.61232956       0.12634524       2.79886455       0.00000000
Si       2.76765212      -2.67538815       0.00310767       0.00000000
Si      -2.64412764       2.86550874      -0.00999979       0.00000000
Si      -0.08263917       2.56275909      -2.95044432       0.00000000
