10
Lattice="16.28999089631971 0.0 0.0 0.0 16.28999089631971 0.0 0.0 0.0 34.529650657227435" Properties=species:S:1:pos:R:3:initial_magmoms:R:1 pbc="T T T"
Si       1.35404099      -1.35338949      -1.35881157       0.00000000
Si      -1.36979103      -1.33999911       1.36654622       0.00000000
Si      -1.35991929       1.36273995      -1.35822457       0.00000000
Si       1.36388504       1.37166687       1.37068978       0.00000000
Si       2.70745655      -2.70606222       0.00580098       0.00000000
Si      -2.71433505      -2.71135647       0.00238255       0.00000000
Si      -0.00346011      -2.71077003      -2.71582760       0.00000000
Si       2.70203198       2.72577312      -0.00732029       0.00000000
Si       2.71180598       0.00439830      -2.71620743       0.00000000
Si      -2.71796772       0.00333945      -2.71610384       0.00000000
