10
Lattice="16.28999089631971 0.0 0.0 0.0 16.28999089631971 0.0 0.0 0.0 34.529650657227435" Properties=species:S:1:pos:R:3:initial_magmoms:R:1 pbc="T T T"
Si       1.35684460       1.35589815      -1.35615279       0.00000000
Si       1.35823119      -1.35718506       1.35729227       0.00000000
Si      -1.35816246       1.35791811       1.35725774       0.00000000
Si      -1.35897696      -1.35883035      -1.35784474       0.00000000
Si       2.71397006      -0.00184077       2.71309976       0.00000000
Si      -0.00102627       2.71280628       2.71513701       0.00000000
Si       0.00057015      -2.71397916       2.71544777       0.00000000
Si       2.71459559      -2.71489140      -0.00013812       0.00000000
Si       2.71459071       2.71497285       0.00006906       0.00000000
Si       0.00379557       2.71252935      -2.71741597       0.00000000
