10
Lattice="16.28999089631971 0.0 0.0 0.0 16.28999089631971 0.0 0.0 0.0 34.529650657227435" Properties=species:S:1:pos:R:3:initial_magmoms:R:1 pbc="T T T"
Si       1.91985795      -1.24486551       0.37057242       0.00000000
Si       0.95216679       1.38083814      -1.67116697       0.00000000
Si      -0.63170991       1.35215145       1.89920091       0.00000000
Si      -1.47846411      -1.91339082       0.15462386       0.00000000
Si       1.26139986      -1.33015995       2.68751327       0.00000000
Si      -0.94675851      -0.64640349       3.18373916       0.00000000
Si      -2.43284634       2.44890828       0.85056936       0.00000000
Si       2.56051107       2.56049478      -0.35748567       0.00000000
Si       1.72035432      -3.11396382      -0.99093247       0.00000000
Si       2.16199251      -0.04380381      -3.15045256       0.00000000
