10
Lattice="16.28999089631971 0.0 0.0 0.0 16.28999089631971 0.0 0.0 0.0 34.529650657227435" Properties=species:S:1:pos:R:3:initial_magmoms:R:1 pbc="T T T"
Si       0.19950363       1.86909831       1.36150489       0.00000000
Si       1.84668327      -1.40066307       0.13349170       0.00000000
Si      -1.79418060      -0.92667294      -1.20522360       0.00000000
Si      -2.36706732      -0.99450450       1.06530938       0.00000000
Si      -1.01669148       1.12703994      -2.38979846       0.00000000
Si       3.15216291       0.31384314       1.17145358       0.00000000
Si      -0.88638777      -2.20548681       2.56735002       0.00000000
Si       1.72353087      -2.28162627      -2.05551672       0.00000000
Si      -0.64583334      -2.70449838      -2.19329011       0.00000000
Si      -3.19881843       1.20057300       1.14555633       0.00000000
