10
Lattice="16.28999089631971 0.0 0.0 0.0 16.28999089631971 0.0 0.0 0.0 34.529650657227435" Properties=species:S:1:pos:R:3:initial_magmoms:R:1 pbc="T T T"
Si       0.19751625      -2.27828682       0.35165016       0.00000000
Si      -2.20815837       0.68375646       0.49622589       0.00000000
Si       0.65845809       0.08529444      -2.31694085       0.00000000
Si       1.23470055       1.92023262       0.83223411       0.00000000
Si      -1.26139986       1.33015995      -2.68751327       0.00000000
Si      -1.89310977       2.68231140      -0.78831237       0.00000000
Si       0.53317170      -2.59367751       2.57687887       0.00000000
Si      -2.73986397      -0.58323087      -2.53288941       0.00000000
Si       2.63350656       0.94193667       2.58734757       0.00000000
Si       2.33523666       2.74543515      -1.24949064       0.00000000
