10
Lattice="16.28999089631971 0.0 0.0 0.0 16.28999089631971 0.0 0.0 0.0 34.529650657227435" Properties=species:S:1:pos:R:3:initial_magmoms:R:1 pbc="T T T"
Si      -1.35773892       1.35894438      -1.35370118       0.00000000
Si      -1.35593073      -1.35860229       1.35718868       0.00000000
Si       1.35909099       1.35599589       1.35736133       0.00000000
Si       1.36298430      -1.36109466      -1.36022729       0.00000000
Si      -2.71249677       2.71207557       0.00048342       0.00000000
Si      -2.71296918      -0.00154755       2.71461906       0.00000000
Si       0.00136836       2.71349917       2.71451547       0.00000000
Si       0.00102627      -2.71570590       2.71444641       0.00000000
Si       2.71728869       2.71300763       0.00027624       0.00000000
Si       2.71651058      -0.00141723       2.71465359       0.00000000
