10
Lattice="16.28999089631971 0.0 0.0 0.0 16.28999089631971 0.0 0.0 0.0 34.529650657227435" Properties=species:S:1:pos:R:3:initial_magmoms:R:1 pbc="T T T"
Si      -1.35713619      -1.35488817      -1.35787927       0.00000000
Si       1.36005994      -1.35366642       1.35625638       0.00000000
Si       1.35834812       1.35940050      -1.35767209       0.00000000
Si      -1.36176255       1.36148562       1.35812098       0.00000000
Si       2.68946664      -0.00747711       2.72408019       0.00000000
Si      -2.71378368      -0.00232947       2.71296164       0.00000000
Si       0.00102627      -2.71280628      -2.71513701       0.00000000
Si      -2.71625976      -2.71270854      -0.00048342       0.00000000
Si      -2.71409319       0.00221544      -2.71513701       0.00000000
Si       2.71499633      -2.71464705      -0.00203725       0.00000000
