10
Lattice="16.28999089631971 0.0 0.0 0.0 16.28999089631971 0.0 0.0 0.0 34.529650657227435" Properties=species:S:1:pos:R:3:initial_magmoms:R:1 pbc="T T T"
Si       1.35327546       1.34660882      -1.37545487       0.00000000
Si      -1.36871838      -1.36492281      -1.37400463       0.00000000
Si      -1.39168728       1.29370293       1.44648240       0.00000000
Si       1.18791567      -1.50900786       1.42921757       0.00000000
Si      -2.26952280      -0.55363194       2.69417750       0.00000000
Si      -0.58011948      -2.38827690       2.87093488       0.00000000
Si       2.69407182       2.69498895       0.00000000       0.00000000
Si      -2.72416041       2.67546050      -0.01087685       0.00000000
Si       2.68251081      -2.73388554      -0.00804541       0.00000000
Si      -0.00654858       2.70446973      -2.73164219       0.00000000
