10
Lattice="16.28999089631971 0.0 0.0 0.0 16.28999089631971 0.0 0.0 0.0 34.529650657227435" Properties=species:S:1:pos:R:3:initial_magmoms:R:1 pbc="T T T"
Si       0.54483534       1.96386443       1.23971874       0.00000000
Si       1.39168728      -1.29370293      -1.44648240       0.00000000
Si      -0.87783552      -1.84733487       1.24769509       0.00000000
Si      -1.33247313       1.38175757      -1.45735925       0.00000000
Si       2.53420272       2.62650905      -0.14050123       0.00000000
Si       2.57960295      -2.80271079      -0.01726483       0.00000000
Si      -2.77702146       2.67842528      -0.12347810       0.00000000
Si       0.02296890      -2.65862574      -2.82048703       0.00000000
Si      -2.68200189       0.05203026      -2.82173010       0.00000000
Si      -2.22184197      -1.00711296       3.07894161       0.00000000
