10
Lattice="16.28999089631971 0.0 0.0 0.0 16.28999089631971 0.0 0.0 0.0 34.529650657227435" Properties=species:S:1:pos:R:3:initial_magmoms:R:1 pbc="T T T"
Si       0.56992194      -2.26782864      -0.00980643       0.00000000
Si       1.73377728       1.51818957       0.58510526       0.00000000
Si      -0.23543937      -0.06387309      -2.41576477       0.00000000
Si      -1.59154929       0.21559849       1.82755184       0.00000000
Si       0.76639563       3.35657798      -0.65575296       0.00000000
Si       2.51230637      -2.29008078      -1.35691244       0.00000000
Si       1.89009612      -0.86747508      -3.09938318       0.00000000
Si      -1.03842234      -3.44748528      -1.32348772       0.00000000
Si      -1.84697649      -1.80380799      -2.84852512       0.00000000
Si      -0.87653232       2.31320348       3.08256723       0.00000000
