10
Lattice="16.28999089631971 0.0 0.0 0.0 16.28999089631971 0.0 0.0 0.0 34.529650657227435" Properties=species:S:1:pos:R:3:initial_magmoms:R:1 pbc="T T T"
Si      -1.47416355       0.11574045      -1.80714481       0.00000000
Si       0.16975809      -2.28081177      -0.55109353       0.00000000
Si      -0.68678640       0.10164960       2.31697538       0.00000000
Si       2.10507525       1.12229955      -0.59380673       0.00000000
Si       1.92733506       2.59791291       1.20436036       0.00000000
Si       3.52502568      -0.92732454       0.66034541       0.00000000
Si       0.48435057       2.07840852       3.06847912       0.00000000
Si       2.47054140      -2.79124263      -0.33155389       0.00000000
Si      -3.11889154      -1.55186685      -1.39251253       0.00000000
Si      -3.04470688      -0.39798099       2.48064602       0.00000000
