10
Lattice="16.28999089631971 0.0 0.0 0.0 16.28999089631971 0.0 0.0 0.0 34.529650657227435" Properties=species:S:1:pos:R:3:initial_magmoms:R:1 pbc="T T T"
Si      -0.18417474      -1.73102427      -1.49844956       0.00000000
Si      -0.00869886      -0.80272233       2.23406965       0.00000000
Si      -1.86470001       1.40942709      -0.50976152       0.00000000
Si       1.75137048       1.23057918      -1.11503210       0.00000000
Si      -1.05725358       1.12919022       3.04313434       0.00000000
Si      -0.81951732      -0.45949203      -3.32752070       0.00000000
Si       0.74459961       1.29834558      -3.34523443       0.00000000
Si      -2.93725804       1.56465450       1.68684344       0.00000000
Si      -2.81945039       0.46804428      -2.50630156       0.00000000
Si       2.21705271      -0.96756084       2.96861931       0.00000000
