10
Lattice="16.28999089631971 0.0 0.0 0.0 16.28999089631971 0.0 0.0 0.0 34.529650657227435" Properties=species:S:1:pos:R:3:initial_magmoms:R:1 pbc="T T T"
Si      -1.35504583       1.35339536       1.35819004       0.00000000
Si       1.35695048      -1.36208835       1.35777568       0.00000000
Si       1.36061573       1.34167635      -1.37544106       0.00000000
Si      -1.35491816      -1.35826020      -1.36603518       0.00000000
Si       0.04356109      -2.62804941      -2.78169295       0.00000000
Si      -2.71107695       2.70986661      -0.00576645       0.00000000
Si       0.00175606       2.71135551       2.71503342       0.00000000
Si       2.71582970       2.71213092      -0.00286596       0.00000000
Si      -2.71324352      -0.00361638       2.71527513       0.00000000
Si      -2.70935021      -2.72070693      -0.00231349       0.00000000
