10
Lattice="16.28999089631971 0.0 0.0 0.0 16.28999089631971 0.0 0.0 0.0 34.529650657227435" Properties=species:S:1:pos:R:3:initial_magmoms:R:1 pbc="T T T"
Si      -1.35341555       1.35267273      -1.36461256       0.00000000
Si       1.36347300      -1.36421257      -1.36433632       0.00000000
Si      -1.36794460      -1.37300591       1.36778929       0.00000000
Si       1.36873467       1.36954917       1.38709137       0.00000000
Si      -2.70745655       2.70606222      -0.00580098       0.00000000
Si       2.72292237       2.70418887      -0.01073873       0.00000000
Si      -2.70874097      -2.72138604      -0.00766559       0.00000000
Si       0.00434943       2.71046052      -2.72200841       0.00000000
Si      -2.71091666      -0.00470781      -2.72162859       0.00000000
Si       2.71806795      -2.71875932      -0.00949566       0.00000000
