10
Lattice="16.28999089631971 0.0 0.0 0.0 16.28999089631971 0.0 0.0 0.0 34.529650657227435" Properties=species:S:1:pos:R:3:initial_magmoms:R:1 pbc="T T T"
Si       1.35550556       1.35617508      -1.35739586       0.00000000
Si      -1.35726885       1.35723393       1.35739586       0.00000000
Si       1.35674360      -1.35829278       1.35701603       0.00000000
Si      -1.35774611      -1.35907470      -1.35622185       0.00000000
Si      -2.71079514      -0.00244350      -2.71748503       0.00000000
Si      -0.00185217       2.71443528       2.71392847       0.00000000
Si       2.71353770      -0.00091224       2.71492983       0.00000000
Si      -2.71468845       2.71464705       0.00010359       0.00000000
Si      -2.71459071      -2.71497285      -0.00006906       0.00000000
Si      -0.00079821      -2.71337643      -2.71624196       0.00000000
