10
Lattice="16.28999089631971 0.0 0.0 0.0 16.28999089631971 0.0 0.0 0.0 34.279985188174585" Properties=species:S:1:pos:R:3:initial_magmoms:R:1 pbc="T T T"
Si      -0.19808640      -2.07488988      -1.01256277       0.00000000
Si      -2.08463293       0.97914533      -0.34557672       0.00000000
Si       0.41589999      -0.43478010       2.26155473       0.00000000
Si       1.70207694       1.68960599      -0.55629591       0.00000000
Si       3.19150422      -0.18924093       0.44855386       0.00000000
Si      -1.59654055       2.70743777       1.23085784       0.00000000
Si       0.53335089       3.45571892       0.58814203       0.00000000
Si      -0.70428186       1.54935234       3.11389275       0.00000000
Si      -1.08199809      -1.60129071      -3.12263416       0.00000000
Si       2.38417182      -2.12356440       1.88049820       0.00000000
