10
Lattice="16.28999089631971 0.0 0.0 0.0 16.28999089631971 0.0 0.0 0.0 34.279985188174585" Properties=species:S:1:pos:R:3:initial_magmoms:R:1 pbc="T T T"
Si      -1.30000716       1.39819676       1.36493722       0.00000000
Si       0.86042151       1.85340452      -1.18604907       0.00000000
Si       1.44402705      -1.33142993       1.33344761       0.00000000
Si      -1.62535104      -1.01139560      -1.47092897       0.00000000
Si      -2.61298116      -2.64070415      -0.03658019       0.00000000
Si      -2.73385296       2.62349798      -0.08912458       0.00000000
Si      -2.64445344       0.03766411       2.72369032       0.00000000
Si      -3.49637157       0.64468652      -1.39074804       0.00000000
Si       0.07084521      -2.68113593       2.71813696       0.00000000
Si      -0.91893519       3.46681499      -1.38786852       0.00000000
