10
Lattice="16.28999089631971 0.0 0.0 0.0 16.28999089631971 0.0 0.0 0.0 34.279985188174585" Properties=species:S:1:pos:R:3:initial_magmoms:R:1 pbc="T T T"
Si      -1.33739271      -1.37262003       1.35841373       0.00000000
Si      -1.35567009       1.35375323      -1.35968209       0.00000000
Si       1.34886087       1.36355166       1.36352145       0.00000000
Si       1.36070370      -1.36020705      -1.35971637       0.00000000
Si       2.60120349      -0.13814754       2.70462378       0.00000000
Si      -2.67247224      -0.05982522       2.74154335       0.00000000
Si      -2.71272483       2.71262593      -0.00010284       0.00000000
Si       0.00241092       2.71208836      -2.71720454       0.00000000
Si       2.72029968       2.70928648      -0.00027424       0.00000000
Si      -2.71248048      -0.00284364      -2.71765018       0.00000000
