10
Lattice="16.28999089631971 0.0 0.0 0.0 16.28999089631971 0.0 0.0 0.0 34.279985188174585" Properties=species:S:1:pos:R:3:initial_magmoms:R:1 pbc="T T T"
Si       0.19085364       2.11603842      -0.86104515       0.00000000
Si      -2.18193147      -0.21709683       0.73952253       0.00000000
Si       1.95828606      -0.79772130       0.98349332       0.00000000
Si      -0.49819707      -1.41785228      -1.86411236       0.00000000
Si       1.72978623      -1.22026924      -2.82381536       0.00000000
Si      -0.31920255      -3.48135938      -0.61710864       0.00000000
Si       1.43786943      -3.08965004       1.05270465       0.00000000
Si      -1.75982499       3.11562540      -0.09046493       0.00000000
Si      -0.91302192       1.88709876      -2.95164549       0.00000000
Si       1.93759776       3.06862875       0.49229514       0.00000000
