10
Lattice="16.28999089631971 0.0 0.0 0.0 16.28999089631971 0.0 0.0 0.0 34.279985188174585" Properties=species:S:1:pos:R:3:initial_magmoms:R:1 pbc="T T T"
Si      -1.16872605       1.76611293       1.14443795       0.00000000
Si      -0.25876665       0.04228395      -2.40940439       0.00000000
Si      -1.70207694      -1.68960599       0.55629591       0.00000000
Si       1.84301802       1.78142553       0.01868260       0.00000000
Si       1.48942728      -1.87884692       1.00484977       0.00000000
Si       1.58363235      -1.34481769      -2.67411458       0.00000000
Si       1.82434968      -3.03317261      -1.04488881       0.00000000
Si      -1.28617695      -2.12438609       2.81785064       0.00000000
Si      -3.78670987      -0.71046066       0.21071919       0.00000000
Si      -3.29861749       1.01783178       1.78715375       0.00000000
