10
Lattice="16.28999089631971 0.0 0.0 0.0 16.28999089631971 0.0 0.0 0.0 34.279985188174585" Properties=species:S:1:pos:R:3:initial_magmoms:R:1 pbc="T T T"
Si       2.12173992      -0.57272382      -0.76605526       0.00000000
Si      -1.28666565      -0.91517220      -1.73254570       0.00000000
Si      -1.16128152      -1.07567757       1.74756034       0.00000000
Si       0.05584212       2.35533852       0.17835886       0.00000000
Si      -3.14905248       0.44274591      -1.26932000       0.00000000
Si      -3.34616148      -0.39565152       0.90787164       0.00000000
Si       2.17417743       0.99430902      -2.54652440       0.00000000
Si      -1.36635633      -3.19992615      -0.99093209       0.00000000
Si       1.21104747       2.67589314       2.14825931       0.00000000
Si      -0.75890223      -3.33993870       1.28560300       0.00000000
