10
Lattice="16.28999089631971 0.0 0.0 0.0 16.28999089631971 0.0 0.0 0.0 34.279985188174585" Properties=species:S:1:pos:R:3:initial_magmoms:R:1 pbc="T T T"
Si      -0.40290057       1.81280007      -1.44658190       0.00000000
Si      -1.63825272      -1.69275906      -0.39278029       0.00000000
Si       1.80265140      -1.40299254      -0.75258322       0.00000000
Si       0.55289889       1.15797465       2.12988523       0.00000000
Si       1.89517860       2.49675201      -1.49573943       0.00000000
Si      -1.02488535       0.58028238      -3.42148723       0.00000000
Si      -1.94773014      -1.47062862      -2.76111723       0.00000000
Si       1.56151053      -3.29763357       0.62824964       0.00000000
Si       1.40470299      -2.06661456      -2.97958370       0.00000000
Si      -0.55372968      -3.86750664      -0.23882879       0.00000000
