10
Lattice="16.28999089631971 0.0 0.0 0.0 16.28999089631971 0.0 0.0 0.0 34.279985188174585" Properties=species:S:1:pos:R:3:initial_magmoms:R:1 pbc="T T T"
Si      -1.89594423      -0.80013222       1.05222473       0.00000000
Si       2.09372112       0.02107926       1.02918857       0.00000000
Si       0.24192279      -1.51560531      -1.75921554       0.00000000
Si      -0.38498157       2.28731867      -0.32127220       0.00000000
Si      -3.28251645       0.32863024      -0.63243180       0.00000000
Si       1.56434499       2.61813599      -1.62610629       0.00000000
Si       1.60997328      -3.06683685      -0.67870981       0.00000000
Si       1.58964336      -0.14226057       3.31600766       0.00000000
Si      -1.95846525       0.34353396       3.10635115       0.00000000
Si       0.25920648       3.22466156       1.77913223       0.00000000
