10
Lattice="16.28999089631971 0.0 0.0 0.0 16.28999089631971 0.0 0.0 0.0 34.279985188174585" Properties=species:S:1:pos:R:3:initial_magmoms:R:1 pbc="T T T"
Si      -1.15520535      -0.32055462      -1.96990045       0.00000000
Si       2.13656382      -0.97192656      -0.31534176       0.00000000
Si      -1.63422909      -0.84672162       1.53797239       0.00000000
Si      -0.05636340       2.38376457      -0.26460735       0.00000000
Si      -3.19538124       0.76338198      -1.46941239       0.00000000
Si      -1.21104747      -2.67589314      -2.14825931       0.00000000
Si       3.23563383      -0.76312134       1.71866230       0.00000000
Si      -3.69937755      -0.19883574       0.61392060       0.00000000
Si       0.24505047       0.34984404      -3.73388091       0.00000000
Si       2.31868602       1.09867905       2.86618544       0.00000000
