10
Lattice="16.28999089631971 0.0 0.0 0.0 16.28999089631971 0.0 0.0 0.0 34.279985188174585" Properties=species:S:1:pos:R:3:initial_magmoms:R:1 pbc="T T T"
Si      -0.13414815      -0.98722287      -2.10602635       0.00000000
Si      -2.10259917       0.96725133       0.36336805       0.00000000
Si       1.62191385       1.69857459      -0.22525391       0.00000000
Si       0.17695827      -1.25537256       2.02869066       0.00000000
Si       0.47965905       0.91857681       3.25642901       0.00000000
Si       1.28699145       2.85290028       1.82448467       0.00000000
Si      -2.98651086       1.44085050      -1.74670334       0.00000000
Si      -2.19929661      -0.33933699      -3.03007814       0.00000000
Si      -0.37496322      -3.28618170      -1.81152683       0.00000000
Si      -3.27619267      -0.43148952       1.86565496       0.00000000
