10
Lattice="16.28999089631971 0.0 0.0 0.0 16.28999089631971 0.0 0.0 0.0 34.279985188174585" Properties=species:S:1:pos:R:3:initial_magmoms:R:1 pbc="T T T"
Si       1.57266918      -1.29988240       1.13363974       0.00000000
Si       1.25688753       1.55462149      -1.30120040       0.00000000
Si      -1.42376229      -1.24016326      -1.52638575       0.00000000
Si      -2.22798330      -0.19758304       0.95970300       0.00000000
Si      -1.72978623       1.22026924       2.82381536       0.00000000
Si       2.29557051       0.97417621       2.68710670       0.00000000
Si      -2.17007235      -3.04602379      -0.09423573       0.00000000
Si      -2.04898878      -2.26109014       2.20670672       0.00000000
Si       0.05738967      -2.45673304      -2.88171429       0.00000000
Si       0.22849983       0.42254794       3.80730868       0.00000000
