10
Lattice="16.28999089631971 0.0 0.0 0.0 16.28999089631971 0.0 0.0 0.0 34.279985188174585" Properties=species:S:1:pos:R:3:initial_magmoms:R:1 pbc="T T T"
Si      -1.95828606       0.79772130      -0.98349332       0.00000000
Si      -0.04878855       0.93651210       2.15614371       0.00000000
Si      -0.52041663      -2.29192874       0.06921133       0.00000000
Si       2.06707068       0.55162827      -1.12020198       0.00000000
Si       1.34416935      -1.72243034      -2.67366894       0.00000000
Si       1.29738447      -3.26585897      -0.89841035       0.00000000
Si      -0.49912560       3.17185848       1.74341246       0.00000000
Si       3.73625811       0.00762372       0.51632543       0.00000000
Si      -2.45648313      -0.62013098      -2.84760568       0.00000000
Si      -0.22849983      -0.42254794      -3.80730868       0.00000000
