10
Lattice="16.28999089631971 0.0 0.0 0.0 16.28999089631971 0.0 0.0 0.0 34.279985188174585" Properties=species:S:1:pos:R:3:initial_magmoms:R:1 pbc="T T T"
Si      -0.80145171      -0.30905388      -2.24633440       0.00000000
Si      -0.84377313       2.00787282       1.06405133       0.00000000
Si       1.99663272      -1.19405700       0.78655470       0.00000000
Si      -1.71789453       0.09058869       2.31986642       0.00000000
Si      -2.66134617       1.10206737      -1.82253071       0.00000000
Si       0.96951564      -2.80618382       2.25752481       0.00000000
Si       3.09765753      -1.70393400      -1.38696898       0.00000000
Si       0.94447791       2.83516047       2.40807230       0.00000000
Si      -3.69649422      -0.84388716       1.28225663       0.00000000
Si      -0.40625631      -1.31862663       3.79175383       0.00000000
