10
Lattice="16.28999089631971 0.0 0.0 0.0 16.28999089631971 0.0 0.0 0.0 34.279985188174585" Properties=species:S:1:pos:R:3:initial_magmoms:R:1 pbc="T T T"
Si      -0.10322973       2.29473972       0.52150171       0.00000000
Si      -0.47843730      -0.69449157       2.23461064       0.00000000
Si      -1.74674412      -0.95259033      -1.35334029       0.00000000
Si       1.82465919       0.20786040      -1.94192797       0.00000000
Si      -0.01133784       1.29925782      -3.23109609       0.00000000
Si      -2.21153040       2.33653986       1.52450035       0.00000000
Si       1.00786230       0.57707325       3.46577700       0.00000000
Si      -1.93759776      -3.06862875      -0.49229514       0.00000000
Si       1.33279893       2.58571170       2.33549670       0.00000000
Si      -3.69742275       0.04699665      -0.58276007       0.00000000
