10
Lattice="16.28999089631971 0.0 0.0 0.0 16.28999089631971 0.0 0.0 0.0 34.279985188174585" Properties=species:S:1:pos:R:3:initial_magmoms:R:1 pbc="T T T"
Si      -1.48629960      -1.27156482      -1.23116636       0.00000000
Si      -0.46099071       0.48057129       2.21524244       0.00000000
Si       0.32493663       2.00863845      -1.13028030       0.00000000
Si       2.23441785      -0.63610821      -0.35106152       0.00000000
Si       2.59089192       1.56178746      -1.24151892       0.00000000
Si      -1.11109203       1.71766647      -2.94427529       0.00000000
Si      -0.40329153      -1.65771927       3.18293268       0.00000000
Si      -3.56508279      -0.23139945      -0.72975273       0.00000000
Si      -1.00786230      -0.57707325      -3.46577700       0.00000000
Si      -1.03596255      -3.50691120      -0.81843510       0.00000000
