10
Lattice="16.28999089631971 0.0 0.0 0.0 16.28999089631971 0.0 0.0 0.0 34.279985188174585" Properties=species:S:1:pos:R:3:initial_magmoms:R:1 pbc="T T T"
Si      -1.35010380      -1.36083402       1.39515161       0.00000000
Si       1.37111301       1.35153243       1.39343761       0.00000000
Si       1.27891161      -1.49092596      -1.41128721       0.00000000
Si      -1.30649547       1.38484548      -1.61588742       0.00000000
Si      -2.71525697      -2.70482418       0.01190887       0.00000000
Si      -2.70593814       2.71634121      -0.01299212       0.00000000
Si       2.73004110       2.69246007       0.01207342       0.00000000
Si       2.71275741      -2.71622718       0.04277459       0.00000000
Si      -2.70414719      -0.00571779       2.75623919       0.00000000
Si       0.00985545       2.70935280       2.75606779       0.00000000
