10
Lattice="16.28999089631971 0.0 0.0 0.0 16.28999089631971 0.0 0.0 0.0 34.279985188174585" Properties=species:S:1:pos:R:3:initial_magmoms:R:1 pbc="T T T"
Si       1.35549090       1.35741312       1.35690541       0.00000000
Si      -1.35948195      -1.35736425       1.35693969       0.00000000
Si       1.35594702      -1.36019871      -1.35800237       0.00000000
Si      -1.36026387       1.35741312      -1.36098473       0.00000000
Si       2.71151937      -2.71454931      -0.00027424       0.00000000
Si       2.72464911       0.00394218      -2.70283779       0.00000000
Si       2.71340901      -0.00071676       2.71453070       0.00000000
Si       2.71342530       2.71539639       0.00075416       0.00000000
Si      -0.00197109       2.71497285       2.71405078       0.00000000
Si      -0.00201996      -2.71487511       2.71422218       0.00000000
