10
Lattice="16.28999089631971 0.0 0.0 0.0 16.28999089631971 0.0 0.0 0.0 34.279985188174585" Properties=species:S:1:pos:R:3:initial_magmoms:R:1 pbc="T T T"
Si      -1.87032006      -0.71658081       1.36108757       0.00000000
Si      -1.54197882       1.30803813      -1.39197386       0.00000000
Si       1.31945742      -1.68573807      -1.28957948       0.00000000
Si       1.22756553      -0.69025617       2.46301831       0.00000000
Si      -2.32085259       2.33240220       0.71703485       0.00000000
Si      -0.88073514      -0.64845603       3.46601696       0.00000000
Si       1.05868710       2.74059702       2.26532553       0.00000000
Si       2.50637940      -0.18461457      -2.77554911       0.00000000
Si       1.33079526      -2.98499589       1.94151661       0.00000000
Si      -0.17402607       2.54788632      -2.84524036       0.00000000
