10
Lattice="16.28999089631971 0.0 0.0 0.0 16.28999089631971 0.0 0.0 0.0 34.279985188174585" Properties=species:S:1:pos:R:3:initial_magmoms:R:1 pbc="T T T"
Si       2.20812579      -0.00501732      -0.74651565       0.00000000
Si      -0.22553505       2.21587983       0.75042358       0.00000000
Si      -1.45140642      -0.06081057      -1.84854923       0.00000000
Si      -0.35771211      -1.96460658       1.27103400       0.00000000
Si       2.10056292       1.68937074      -2.31486013       0.00000000
Si       1.08745524       3.30486633      -0.92977656       0.00000000
Si       2.40272613      -1.78460208      -2.18901824       0.00000000
Si      -3.57314634       0.51191325      -1.08249398       0.00000000
Si       0.87353496       2.42468505       2.78442763       0.00000000
Si      -1.14160320      -2.03377392      -3.00001458       0.00000000
