10
Lattice="16.28999089631971 0.0 0.0 0.0 16.28999089631971 0.0 0.0 0.0 34.279985188174585" Properties=species:S:1:pos:R:3:initial_magmoms:R:1 pbc="T T T"
Si      -1.35659862      -1.35677781      -1.35789953       0.00000000
Si       1.35835794       1.35803214      -1.35762529       0.00000000
Si      -1.35625653       1.35891180       1.35971637       0.00000000
Si       1.35940050      -1.35755973       1.36002489       0.00000000
Si      -2.71366965       0.00045612      -2.71497634       0.00000000
Si       2.71409319      -2.71484253       0.00041136       0.00000000
Si      -2.71353933       2.71572219      -0.00023996       0.00000000
Si      -2.71467963      -2.71464705      -0.00061704       0.00000000
Si       0.00086337      -2.71433754      -2.71504490       0.00000000
Si       0.00811242       2.72121192       2.70877166       0.00000000
