10
Lattice="16.28999089631971 0.0 0.0 0.0 16.28999089631971 0.0 0.0 0.0 34.279985188174585" Properties=species:S:1:pos:R:3:initial_magmoms:R:1 pbc="T T T"
Si       1.35790182       1.35713945      -1.35642549       0.00000000
Si       1.35733167      -1.35728347       1.35800237       0.00000000
Si      -1.35739683       1.35801911       1.35786525       0.00000000
Si      -1.35786924      -1.35752058      -1.35789953       0.00000000
Si      -2.71337643       0.00100998       2.71401650       0.00000000
Si      -0.00133578      -2.71510710       2.71288526       0.00000000
Si       2.71365336      -0.00066300       2.71494206       0.00000000
Si      -0.00179190      -2.71393422      -2.71473638       0.00000000
Si       2.71480995      -2.71499307       0.00027424       0.00000000
Si       2.71487511       2.71512272       0.00010284       0.00000000
