10
Lattice="16.28999089631971 0.0 0.0 0.0 16.28999089631971 0.0 0.0 0.0 34.279985188174585" Properties=species:S:1:pos:R:3:initial_magmoms:R:1 pbc="T T T"
Si       1.89182286      -0.82918381      -1.04242065       0.00000000
Si      -0.11634318      -0.69870416       2.22000736       0.00000000
Si      -0.15299568       2.34911574       0.13581738       0.00000000
Si      -1.66918743       0.54400455      -1.63652741       0.00000000
Si       1.57235967      -3.19366169      -0.75344022       0.00000000
Si      -3.73625811      -0.00762372      -0.51632543       0.00000000
Si      -0.57159981      -3.77202185       0.06362369       0.00000000
Si      -2.10971790       0.15868089       3.21443601       0.00000000
Si      -0.36193122      -3.09740408       2.31451733       0.00000000
Si       1.92443544      -0.12037658       3.43615908       0.00000000
