10
Lattice="16.28999089631971 0.0 0.0 0.0 16.28999089631971 0.0 0.0 0.0 34.279985188174585" Properties=species:S:1:pos:R:3:initial_magmoms:R:1 pbc="T T T"
Si      -1.37841093      -1.60129788       1.06175457       0.00000000
Si       0.35090289       1.27236303       1.96544405       0.00000000
Si      -0.88482393       1.43505126      -1.68431373       0.00000000
Si       2.04099039      -0.97614730      -0.84256823       0.00000000
Si       0.49482504      -0.31572301       3.68818567       0.00000000
Si      -1.74107520       0.01817964      -3.37699179       0.00000000
Si       0.77864571       3.00446244      -2.37008522       0.00000000
Si       2.29307814      -0.26087783      -3.15526872       0.00000000
Si      -1.63310508      -1.17236686       3.36845607       0.00000000
Si      -3.39110559      -1.97200943      -0.00949556       0.00000000
