10
Lattice="16.28999089631971 0.0 0.0 0.0 16.28999089631971 0.0 0.0 0.0 34.279985188174585" Properties=species:S:1:pos:R:3:initial_magmoms:R:1 pbc="T T T"
Si      -1.34791605      -1.35625653      -1.39183674       0.00000000
Si       1.36661697       1.35555606      -1.39005418       0.00000000
Si      -1.37595114       1.40828679       1.43753198       0.00000000
Si       1.24199847      -1.50017868       1.52799691       0.00000000
Si      -2.70819621      -2.71590138      -0.01710572       0.00000000
Si      -2.71083519       2.72082096      -0.02183636       0.00000000
Si       2.74440888       2.69674434      -0.00946128       0.00000000
Si       2.71529865      -2.72766276       0.01048968       0.00000000
Si      -2.71031391       0.00086337      -2.75172451       0.00000000
Si       0.00679293      -2.71290402      -2.75265007       0.00000000
