10
Lattice="16.28999089631971 0.0 0.0 0.0 16.28999089631971 0.0 0.0 0.0 34.279985188174585" Properties=species:S:1:pos:R:3:initial_magmoms:R:1 pbc="T T T"
Si      -1.12361904      -0.38413449       2.08408714       0.00000000
Si       1.49246929       1.44034551       1.23490288       0.00000000
Si       1.29688341      -1.50490278      -1.42111186       0.00000000
Si      -1.40268303       1.19920464      -1.68379953       0.00000000
Si      -2.08371906       1.81563453       1.75393642       0.00000000
Si       2.73444659      -2.07923931       0.40193305       0.00000000
Si      -0.04458573       2.87609724       2.22429236       0.00000000
Si      -3.29393574       2.00787282      -0.30735452       0.00000000
Si       0.11937933       2.55010176      -2.96336926       0.00000000
Si       2.87445914       2.65046445      -0.26063087       0.00000000
