10
Lattice="16.28999089631971 0.0 0.0 0.0 16.28999089631971 0.0 0.0 0.0 34.279985188174585" Properties=species:S:1:pos:R:3:initial_magmoms:R:1 pbc="T T T"
Si       0.90078813       2.00036313      -0.84822443       0.00000000
Si       2.12330376      -1.09138113       0.04165021       0.00000000
Si      -0.46530756       1.04674653       2.24609444       0.00000000
Si      -1.12954860      -0.62739306      -2.24180944       0.00000000
Si      -1.97068275       2.47609629       1.02589769       0.00000000
Si       1.94725773       1.32739065      -2.82001028       0.00000000
Si       1.71014049      -3.04886898      -1.17635263       0.00000000
Si       2.55543415      -1.70711055       2.29734305       0.00000000
Si      -2.95994187       0.83924451      -2.39466398       0.00000000
Si       0.59829912      -0.44613423      -3.90089309       0.00000000
