10
Lattice="16.28999089631971 0.0 0.0 0.0 16.28999089631971 0.0 0.0 0.0 34.279985188174585" Properties=species:S:1:pos:R:3:initial_magmoms:R:1 pbc="T T T"
Si      -1.23253398       1.32800967       1.51623887       0.00000000
Si       1.33107061       1.38030057      -1.38306106       0.00000000
Si      -1.37779191      -1.34118828      -1.38059290       0.00000000
Si       1.42350786      -1.38020283       1.57300656       0.00000000
Si       2.69452957      -2.70195714      -0.00006856       0.00000000
Si       2.68860001       2.73411360      -0.00637608       0.00000000
Si       2.69103862       0.02037879      -2.74236607       0.00000000
Si      -0.02350647      -2.69475696      -2.74356587       0.00000000
Si      -2.74440888      -2.69674434       0.00946128       0.00000000
Si      -2.72723922       2.71875213      -0.00137120       0.00000000
