10
Lattice="16.28999089631971 0.0 0.0 0.0 16.28999089631971 0.0 0.0 0.0 34.279985188174585" Properties=species:S:1:pos:R:3:initial_magmoms:R:1 pbc="T T T"
Si      -1.36783872      -1.34200278      -1.38114138       0.00000000
Si       1.34312679       1.37515293      -1.38175842       0.00000000
Si      -1.34416935       1.41069771       1.35135205       0.00000000
Si       1.49470524      -1.39074246       1.51761007       0.00000000
Si       0.27344394       2.65054590       2.69694506       0.00000000
Si      -2.72800485      -2.69467551      -0.01100388       0.00000000
Si       2.71145421       2.72458395      -0.01652296       0.00000000
Si      -0.01314603      -2.69928558      -2.74075491       0.00000000
Si       2.72723922      -2.71875213       0.00137120       0.00000000
Si       2.70391194       0.01633887      -2.74205755       0.00000000
