10
Lattice="16.28999089631971 0.0 0.0 0.0 16.28999089631971 0.0 0.0 0.0 34.279985188174585" Properties=species:S:1:pos:R:3:initial_magmoms:R:1 pbc="T T T"
Si      -1.72379151       0.58355667      -1.45096974       0.00000000
Si      -0.07569963      -2.05011279       1.14371806       0.00000000
Si       1.77047865      -0.38804409      -1.51366787       0.00000000
Si       0.37524015       2.01429108       1.21844847       0.00000000
Si      -1.56022362       2.93609331      -1.40620006       0.00000000
Si      -1.75242933      -1.58741163       2.77016715       0.00000000
Si       1.92629920       3.11919291      -0.16214442       0.00000000
Si      -3.71493450       0.33653511      -0.26769255       0.00000000
Si       1.80991674      -2.68851789      -1.88073816       0.00000000
Si      -1.14681600      -3.58428870      -0.25308927       0.00000000
