10
Lattice="16.28999089631971 0.0 0.0 0.0 16.28999089631971 0.0 0.0 0.0 34.279985188174585" Properties=species:S:1:pos:R:3:initial_magmoms:R:1 pbc="T T T"
Si       1.35750784      -1.35714922      -1.35783097       0.00000000
Si      -1.35722296       1.35762489      -1.35810521       0.00000000
Si      -1.35844471      -1.35816083       1.35673401       0.00000000
Si       1.35895276       1.35790182       1.35659689       0.00000000
Si      -2.71419625      -0.00035838      -2.71463354       0.00000000
Si      -2.71476640      -2.71478130      -0.00020568       0.00000000
Si       0.00074402       2.71477737      -2.71507918       0.00000000
Si       2.71513762      -2.71493200      -0.00106268       0.00000000
Si       0.00059247      -2.71554728      -2.71463354       0.00000000
Si      -2.71532026       2.71500543      -0.00030852       0.00000000
