10
Lattice="16.28999089631971 0.0 0.0 0.0 16.28999089631971 0.0 0.0 0.0 34.279985188174585" Properties=species:S:1:pos:R:3:initial_magmoms:R:1 pbc="T T T"
Si       1.35245984       1.35275418      -1.35936672       0.00000000
Si       1.35395219      -1.35607734       1.35906505       0.00000000
Si      -1.35923760       1.35881406       1.35909933       0.00000000
Si      -1.34399016      -1.37072205      -1.38377751       0.00000000
Si      -0.09014886       2.66843232      -2.69266006       0.00000000
Si       2.71244531       0.00115659       2.71682746       0.00000000
Si      -0.00226431      -2.71389771       2.71624470       0.00000000
Si       2.71302849       2.71743264       0.00202252       0.00000000
Si       2.71490836      -2.71635750      -0.00308520       0.00000000
Si      -0.00260640       2.71614573       2.71672462       0.00000000
