10
Lattice="16.28999089631971 0.0 0.0 0.0 16.28999089631971 0.0 0.0 0.0 34.279985188174585" Properties=species:S:1:pos:R:3:initial_magmoms:R:1 pbc="T T T"
Si      -0.91735506      -0.48765744       2.10390099       0.00000000
Si       2.35888064      -0.10896381       0.26450451       0.00000000
Si      -0.53343234      -2.01846132      -1.25207716       0.00000000
Si      -0.58319829       2.34718279      -0.46668798       0.00000000
Si       1.30399725       3.19677308       0.73170669       0.00000000
Si      -3.17593098      -0.44504280       1.49961307       0.00000000
Si       3.05301383       2.02917918      -0.42486637       0.00000000
Si       3.14609489      -1.88915130      -1.01887029       0.00000000
Si       1.38117113      -3.41883117      -1.22132799       0.00000000
Si      -0.03580542      -2.53154745       2.99151314       0.00000000
