10
Lattice="16.28999089631971 0.0 0.0 0.0 16.28999089631971 0.0 0.0 0.0 34.279985188174585" Properties=species:S:1:pos:R:3:initial_magmoms:R:1 pbc="T T T"
Si      -0.82666863       2.16707501      -0.06197825       0.00000000
Si      -0.93294459      -0.74358963       2.00116381       0.00000000
Si       2.25857592      -0.04261464       0.60428792       0.00000000
Si      -0.87575040      -1.14935724      -1.89002804       0.00000000
Si       3.17593098       0.44504280      -1.49961307       0.00000000
Si      -2.83936329       1.79636346      -1.13322838       0.00000000
Si       0.69317208      -2.82608694      -2.06711854       0.00000000
Si      -1.08136278       2.59600602       2.24472324       0.00000000
Si      -0.14911866      -2.90413233       2.18130524       0.00000000
Si       2.62192437       1.68484212       2.21222580       0.00000000
