10
Lattice="16.28999089631971 0.0 0.0 0.0 16.28999089631971 0.0 0.0 0.0 34.279985188174585" Properties=species:S:1:pos:R:3:initial_magmoms:R:1 pbc="T T T"
Si       1.67400927       0.82653831       1.40356050       0.00000000
Si      -1.38198984      -1.21011894       1.49553375       0.00000000
Si      -1.47649954       1.37029851      -1.25481956       0.00000000
Si       1.18788309      -1.46743578      -1.48086191       0.00000000
Si      -2.91904487       0.22563279       2.48492324       0.00000000
Si      -0.20722509       2.54578491      -2.88929017       0.00000000
Si      -2.75507981      -0.10036269      -2.70273838       0.00000000
Si       2.58317046      -0.05240493      -2.87369276       0.00000000
Si       3.61434375      -0.54058365       1.30788501       0.00000000
Si       0.88571988       1.15805610       3.59778930       0.00000000
