10
Lattice="16.28999089631971 0.0 0.0 0.0 16.28999089631971 0.0 0.0 0.0 34.279985188174585" Properties=species:S:1:pos:R:3:initial_magmoms:R:1 pbc="T T T"
Si       1.15673661       0.30941226       2.06406762       0.00000000
Si      -0.79741342       1.86491178      -1.34096521       0.00000000
Si      -1.37039136      -2.03942655       0.36292241       0.00000000
Si       1.78165359      -0.99668736      -1.44815878       0.00000000
Si       2.71911051      -0.95361660       0.68532585       0.00000000
Si      -1.86860500       0.17791938      -2.72388915       0.00000000
Si      -3.01658939      -1.25307567      -1.19880603       0.00000000
Si       0.87913872       2.65095315       2.16539931       0.00000000
Si       0.75836466      -2.69415423      -2.78000551       0.00000000
Si       0.87579927       2.79031410      -2.80797800       0.00000000
