10
Lattice="16.28999089631971 0.0 0.0 0.0 16.28999089631971 0.0 0.0 0.0 34.279985188174585" Properties=species:S:1:pos:R:3:initial_magmoms:R:1 pbc="T T T"
Si      -1.55105905      -1.10490183       1.38059290       0.00000000
Si       2.03763514      -1.19198817      -0.21157619       0.00000000
Si       0.59598480       2.14101199       0.93265608       0.00000000
Si      -1.34256334       0.39526056      -2.06111954       0.00000000
Si      -3.27685423       0.49151817       1.00683801       0.00000000
Si       0.99960050       3.11282745      -1.15828707       0.00000000
Si       2.99071417      -0.52084017       1.80566495       0.00000000
Si      -1.92629920      -3.11919291       0.16214442       0.00000000
Si      -3.48652282      -0.18309960      -1.24405564       0.00000000
Si      -0.15582055      -3.50723700      -1.35152345       0.00000000
