10
Lattice="16.28999089631971 0.0 0.0 0.0 16.28999089631971 0.0 0.0 0.0 34.31052061344573" Properties=species:S:1:pos:R:3:initial_magmoms:R:1 pbc="T T T"
Si      -0.11639205      -1.06010500       2.09064412       0.00000000
Si      -0.70666020       2.24828716      -0.42476448       0.00000000
Si      -1.55649321      -1.39716139      -1.30973624       0.00000000
Si      -1.15426053       0.13658350      -3.08177268       0.00000000
Si       3.36842991       0.84545589       0.55480143       0.00000000
Si       0.70395606       0.90364865       3.37148200       0.00000000
Si       1.93293882       2.33618800       1.88701107       0.00000000
Si      -0.59908104       2.41631851      -2.77956545       0.00000000
Si       1.70812053      -2.83134928       2.00799003       0.00000000
Si       0.72910782       3.97333300       0.57140773       0.00000000
