10
Lattice="16.28999089631971 0.0 0.0 0.0 16.28999089631971 0.0 0.0 0.0 34.31052061344573" Properties=species:S:1:pos:R:3:initial_magmoms:R:1 pbc="T T T"
Si      -1.33745787      -1.35488817      -1.36562810       0.00000000
Si       1.36936998       1.36101321      -1.36466741       0.00000000
Si       1.37184606      -1.35260757       1.40144831       0.00000000
Si      -1.33913574       1.28785482       1.51422705       0.00000000
Si       2.14148340       0.45427923       2.76491485       0.00000000
Si       0.64371564       2.34461970       2.62087920       0.00000000
Si       0.27240138      -1.40923161       3.49881729       0.00000000
Si      -2.69488728       2.72020194       0.03400174       0.00000000
Si      -2.70128925       0.00135207      -2.72185512       0.00000000
Si      -2.71099809      -2.72083725       0.02075788       0.00000000
