10
Lattice="16.28999089631971 0.0 0.0 0.0 16.28999089631971 0.0 0.0 0.0 34.31052061344573" Properties=species:S:1:pos:R:3:initial_magmoms:R:1 pbc="T T T"
Si       1.22306949       1.63098738       1.17348908       0.00000000
Si      -0.02331099      -1.86854445       1.44526287       0.00000000
Si      -2.29009707       0.57752937      -0.27990538       0.00000000
Si       1.58560344      -0.76075929      -1.61571763       0.00000000
Si       0.87076566       3.49741413      -0.14458461       0.00000000
Si       0.49150188       1.22458446       3.35934495       0.00000000
Si       1.26600993      -1.00284498       3.24749259       0.00000000
Si      -2.64446973       2.22024555       1.36494189       0.00000000
Si      -2.26813815      -2.32539750       1.88677089       0.00000000
Si      -0.02661786      -2.03040189      -3.17691581       0.00000000
