10
Lattice="16.28999089631971 0.0 0.0 0.0 16.28999089631971 0.0 0.0 0.0 34.31052061344573" Properties=species:S:1:pos:R:3:initial_magmoms:R:1 pbc="T T T"
Si       1.35509994      -1.35713619       1.35862875       0.00000000
Si      -1.35741312      -1.35700587      -1.35739358       0.00000000
Si       1.35723393       1.35755973      -1.35787392       0.00000000
Si      -1.35935163       1.35744570       1.36271171       0.00000000
Si       2.71505430       2.71389771       0.00075483       0.00000000
Si       2.71471221       0.00123804      -2.71464991       0.00000000
Si      -0.00086337      -2.71471221      -2.71495870       0.00000000
Si       2.71456560      -2.71536381      -0.00113225       0.00000000
Si      -2.71513575       0.00060273      -2.71526750       0.00000000
Si      -0.00078192       2.71542897      -2.71509595       0.00000000
