10
Lattice="16.28999089631971 0.0 0.0 0.0 16.28999089631971 0.0 0.0 0.0 34.31052061344573" Properties=species:S:1:pos:R:3:initial_magmoms:R:1 pbc="T T T"
Si      -1.36254447      -1.82060298       0.62623597       0.00000000
Si       2.15269092      -0.54343440      -0.88329054       0.00000000
Si      -0.79548957       1.30017006      -1.87558566       0.00000000
Si       0.79249221       0.99873990       2.08172338       0.00000000
Si       2.50499475      -2.40986115       0.43478316       0.00000000
Si       3.40244343       1.35998694      -0.37254384       0.00000000
Si      -1.00817181      -3.46331916      -1.01861131       0.00000000
Si      -0.89221959       2.40572349       2.84949033       0.00000000
Si      -0.58701015      -2.80005552       2.60770396       0.00000000
Si       0.63348552       3.20355882      -2.18801743       0.00000000
