10
Lattice="16.28999089631971 0.0 0.0 0.0 16.28999089631971 0.0 0.0 0.0 34.31052061344573" Properties=species:S:1:pos:R:3:initial_magmoms:R:1 pbc="T T T"
Si       1.35731538      -1.35620766       1.35708478       0.00000000
Si       1.35617508       1.35808400      -1.35749651       0.00000000
Si      -1.35742941       1.35782805       1.35711909       0.00000000
Si      -1.35816246      -1.35700587      -1.35753082       0.00000000
Si       2.71239903       0.00060273       2.71389508       0.00000000
Si      -2.71327706       0.00117288       2.71406663       0.00000000
Si      -0.00131949      -2.71282257       2.71454698       0.00000000
Si       2.71410948      -2.71432125      -0.00024017       0.00000000
Si      -2.71519277      -2.71419093       0.00003431       0.00000000
Si       2.71487511       2.71518692      -0.00017155       0.00000000
