10
Lattice="16.28999089631971 0.0 0.0 0.0 16.28999089631971 0.0 0.0 0.0 34.31052061344573" Properties=species:S:1:pos:R:3:initial_magmoms:R:1 pbc="T T T"
Si       1.03213440      -2.02030209       0.49074365       0.00000000
Si      -2.18185002      -0.19033236       0.88085449       0.00000000
Si       0.79245963       0.69981840      -2.12049429       0.00000000
Si       1.15119801       1.28831094       1.69717085       0.00000000
Si       3.24369738       0.45414891       0.65557148       0.00000000
Si       3.02462946      -1.46996073      -0.70364055       0.00000000
Si      -0.08487090       3.26032428       1.08637462       0.00000000
Si       0.04375494       0.02897991       3.46231088       0.00000000
Si      -3.29787140       1.14938982      -0.62863771       0.00000000
Si       0.37647819      -2.19620151       2.78337392       0.00000000
