10
Lattice="16.28999089631971 0.0 0.0 0.0 16.28999089631971 0.0 0.0 0.0 34.31052061344573" Properties=species:S:1:pos:R:3:initial_magmoms:R:1 pbc="T T T"
Si       1.74529431       1.04288158      -1.09279069       0.00000000
Si       0.90921006      -1.85460021       1.08314943       0.00000000
Si      -1.68290361       1.09081980       1.23267476       0.00000000
Si      -1.35545832      -1.24134687      -1.59485682       0.00000000
Si       0.73704105      -2.07550890      -2.63645619       0.00000000
Si      -1.12179456      -2.49903261       2.12461156       0.00000000
Si      -2.59152723       0.73066647      -2.20565305       0.00000000
Si      -2.46290139      -2.50067790       0.17028321       0.00000000
Si       0.88695792       3.07687868      -1.74880821       0.00000000
Si       1.75273884      -3.12707727      -0.74731787       0.00000000
