10
Lattice="16.28999089631971 0.0 0.0 0.0 16.28999089631971 0.0 0.0 0.0 34.31052061344573" Properties=species:S:1:pos:R:3:initial_magmoms:R:1 pbc="T T T"
Si       1.53432252      -1.16177022       1.34053338       0.00000000
Si      -1.32172173      -1.18196982      -1.55666717       0.00000000
Si      -1.19118996       1.57043745       1.33303309       0.00000000
Si      -2.55070449      -2.61450916      -0.07219624       0.00000000
Si       0.16630461      -2.50900046       2.72437695       0.00000000
Si      -2.55332718       0.21326868       2.71892157       0.00000000
Si       0.96554088      -0.59738688      -3.59804136       0.00000000
Si      -2.52555273       0.45517518      -2.87227051       0.00000000
Si       0.11376936      -2.67270193      -2.88887681       0.00000000
Si      -2.47217040       3.06374175      -0.10294877       0.00000000
