10
Lattice="16.28999089631971 0.0 0.0 0.0 16.28999089631971 0.0 0.0 0.0 34.31052061344573" Properties=species:S:1:pos:R:3:initial_magmoms:R:1 pbc="T T T"
Si       1.35638685       1.35783666       1.35828565       0.00000000
Si       1.35878148      -1.36011563      -1.35488891       0.00000000
Si      -1.35835794      -1.35800445       1.35835427       0.00000000
Si      -1.36085031       1.36215351      -1.36034428       0.00000000
Si       0.00617391      -2.71369313      -2.70828530       0.00000000
Si       2.71277370      -2.71403239       0.00188708       0.00000000
Si       2.71381626       2.71593396       0.00329381       0.00000000
Si       2.71409319       0.00006516       2.71615957       0.00000000
Si      -0.00144981       2.71471221       2.71591940       0.00000000
Si      -0.00164529      -2.71506265       2.71557629       0.00000000
