10
Lattice="16.28999089631971 0.0 0.0 0.0 16.28999089631971 0.0 0.0 0.0 34.31052061344573" Properties=species:S:1:pos:R:3:initial_magmoms:R:1 pbc="T T T"
Si       2.21772060      -0.79060634      -0.36691691       0.00000000
Si      -1.11006576      -2.19599351       0.08742326       0.00000000
Si       0.15280020       0.58419540       2.41553062       0.00000000
Si      -0.81448371       1.38581653      -2.08621806       0.00000000
Si      -1.59676209      -0.60853301       3.52338364       0.00000000
Si       3.81075228       0.83214875       0.39004222       0.00000000
Si       1.20379842       3.74028516      -0.21241655       0.00000000
Si       2.52449388      -1.66340825      -2.52583901       0.00000000
Si      -3.51113031      -1.78802675       0.15172121       0.00000000
Si      -1.94764869      -0.20476907      -3.53233869       0.00000000
