10
Lattice="16.28999089631971 0.0 0.0 0.0 16.28999089631971 0.0 0.0 0.0 34.31052061344573" Properties=species:S:1:pos:R:3:initial_magmoms:R:1 pbc="T T T"
Si       1.95611949      -0.63768769       1.12778744       0.00000000
Si      -1.74956229      -1.19272841       1.10785302       0.00000000
Si      -0.30281481       2.25781029       0.72508464       0.00000000
Si      -0.15280020      -0.58419540      -2.41553062       0.00000000
Si      -0.41945121       1.55230668       3.02550340       0.00000000
Si       1.40704875       0.08163896       3.30684982       0.00000000
Si      -2.30309649       2.84069907      -0.37607783       0.00000000
Si       2.06492040      -1.37480174      -2.78244753       0.00000000
Si      -2.03729256      -0.07282282       3.12661656       0.00000000
Si       3.65192478       0.77751193       0.29328649       0.00000000
