10
Lattice="16.28999089631971 0.0 0.0 0.0 16.28999089631971 0.0 0.0 0.0 34.31052061344573" Properties=species:S:1:pos:R:3:initial_magmoms:R:1 pbc="T T T"
Si      -0.56689200      -2.29850843      -0.27427846       0.00000000
Si       0.13937724       0.76069885      -2.27355361       0.00000000
Si       2.31006861      -0.31254566       0.64534694       0.00000000
Si      -0.49560696       1.12550852       2.11754358       0.00000000
Si       0.35616456       3.20082357       1.40837904       0.00000000
Si       1.97211627      -1.90437188       2.35788892       0.00000000
Si       3.01353597      -1.62925007      -1.17348908       0.00000000
Si       2.16003771      -0.27835295      -2.97005757       0.00000000
Si       0.85335165      -0.11766839       3.61962471       0.00000000
Si       1.35462753      -3.28020899      -1.34363505       0.00000000
