10
Lattice="16.28999089631971 0.0 0.0 0.0 16.28999089631971 0.0 0.0 0.0 34.31052061344573" Properties=species:S:1:pos:R:3:initial_magmoms:R:1 pbc="T T T"
Si       1.35767376       1.35697329       1.35632995       0.00000000
Si      -1.35793440      -1.35742941       1.35650150       0.00000000
Si       1.35783666      -1.35687555      -1.35763375       0.00000000
Si      -1.35775521       1.35762489      -1.35749651       0.00000000
Si      -2.70861975      -0.00070047       2.71513026       0.00000000
Si       2.71526607       0.00122175      -2.71262559       0.00000000
Si      -2.71440270      -2.71510317       0.00006862       0.00000000
Si      -2.71430496       2.71533123       0.00006862       0.00000000
Si      -0.00301365      -2.71265967       2.71712027       0.00000000
Si       2.71554300      -2.71464705       0.00024017       0.00000000
