10
Lattice="16.28999089631971 0.0 0.0 0.0 16.28999089631971 0.0 0.0 0.0 34.31052061344573" Properties=species:S:1:pos:R:3:initial_magmoms:R:1 pbc="T T T"
Si      -1.35509994       1.35713619      -1.35862875       0.00000000
Si       1.35946566      -1.35822762      -1.35976100       0.00000000
Si      -1.36936998      -1.36101321       1.36466741       0.00000000
Si       1.35495333       1.37578824       1.36562810       0.00000000
Si       2.58872535      -0.12965211       2.69924448       0.00000000
Si      -2.70682785      -2.71590138      -0.00096070       0.00000000
Si      -2.71251306       0.00013032      -2.71602233       0.00000000
Si      -2.71445157       2.71458189       0.00408295       0.00000000
Si       0.00213399       2.71469592      -2.71650268       0.00000000
Si       2.71979469       2.71145421      -0.00277915       0.00000000
