10
Lattice="16.28999089631971 0.0 0.0 0.0 16.28999089631971 0.0 0.0 0.0 34.31052061344573" Properties=species:S:1:pos:R:3:initial_magmoms:R:1 pbc="T T T"
Si       0.73386450       0.76445712      -2.08930601       0.00000000
Si       1.90195524      -1.11770577       0.85409227       0.00000000
Si      -1.66775391      -1.72735902      -0.01471922       0.00000000
Si      -0.79897563       1.93126095       1.23857618       0.00000000
Si      -0.31394088      -0.82907955      -3.36775103       0.00000000
Si      -0.64619172       2.61625545      -2.40822248       0.00000000
Si       3.36513933       0.80177751       1.30235947       0.00000000
Si      -1.78439031      -2.43286263       2.28569954       0.00000000
Si      -0.89764416       3.72676104      -0.35483960       0.00000000
Si      -3.11441994       1.68534711       1.69319083       0.00000000
