10
Lattice="16.28999089631971 0.0 0.0 0.0 16.28999089631971 0.0 0.0 0.0 34.31052061344573" Properties=species:S:1:pos:R:3:initial_magmoms:R:1 pbc="T T T"
Si      -1.04780538      -1.59353667      -1.27844502       0.00000000
Si      -1.38005622       1.85179833      -0.31891647       0.00000000
Si      -0.73386450      -0.76445712       2.08930601       0.00000000
Si       0.75631212       1.57832181      -1.56778581       0.00000000
Si       1.16809074      -1.88216289       2.94339828       0.00000000
Si       0.19186362      -1.69095087      -3.31714299       0.00000000
Si      -1.63150866       2.96230392       1.73446641       0.00000000
Si       3.09094605       2.09434014      -0.88757935       0.00000000
Si      -1.53284013       1.16680383       3.32788219       0.00000000
Si      -3.52869093       1.16297568      -1.08071338       0.00000000
