10
Lattice="16.28999089631971 0.0 0.0 0.0 16.28999089631971 0.0 0.0 0.0 34.31052061344573" Properties=species:S:1:pos:R:3:initial_magmoms:R:1 pbc="T T T"
Si       1.35804843       1.35635427      -1.35488891       0.00000000
Si      -1.35747828       1.35632169       1.35677599       0.00000000
Si       1.35769005      -1.35798327       1.35705047       0.00000000
Si      -1.35803214      -1.35809730      -1.36017273       0.00000000
Si       2.70475902       0.00822645      -2.70819953       0.00000000
Si       2.71425609      -0.00122175       2.71358628       0.00000000
Si       0.00034209       2.71265967       2.71540474       0.00000000
Si       2.71396287       2.71428867       0.00020586       0.00000000
Si       0.00144981       2.71138905      -2.71691440       0.00000000
Si      -2.71471221      -0.00123804       2.71464991       0.00000000
