10
Lattice="16.28999089631971 0.0 0.0 0.0 16.28999089631971 0.0 0.0 0.0 34.31052061344573" Properties=species:S:1:pos:R:3:initial_magmoms:R:1 pbc="T T T"
Si      -0.35230383       1.86642675      -1.31807370       0.00000000
Si       2.25971622      -0.59241843       0.02597308       0.00000000
Si      -0.73156761      -0.40640292       2.18585587       0.00000000
Si      -1.22306949      -1.63098738      -1.17348908       0.00000000
Si       0.04294044      -2.63383236       2.07400351       0.00000000
Si      -2.50499475       2.40986115      -0.43478316       0.00000000
Si       2.51116866      -1.70292402      -2.02740980       0.00000000
Si       0.36253395      -2.39174667      -2.78920671       0.00000000
Si      -1.24638048      -3.49953183       0.27177379       0.00000000
Si       2.35838475      -2.38791852       1.61938886       0.00000000
