10
Lattice="16.28999089631971 0.0 0.0 0.0 16.28999089631971 0.0 0.0 0.0 34.31052061344573" Properties=species:S:1:pos:R:3:initial_magmoms:R:1 pbc="T T T"
Si       1.30873860       1.32313896      -1.41621698       0.00000000
Si      -1.34029233       1.37643984       1.34155926       0.00000000
Si       1.37849238      -1.35179307       1.33186310       0.00000000
Si      -1.70052939      -1.11048930      -1.46510950       0.00000000
Si       2.42750322      -0.46356453      -2.67795277       0.00000000
Si      -2.70469386       2.62450863      -0.10161753       0.00000000
Si       0.01135413      -2.70018153       2.69166185       0.00000000
Si      -2.70661608       0.02176344       2.68912287       0.00000000
Si       2.72448621       0.01726740       2.69197064       0.00000000
Si       0.01231524       2.73001734       2.69495566       0.00000000
