10
Lattice="16.28999089631971 0.0 0.0 0.0 16.28999089631971 0.0 0.0 0.0 34.31052061344573" Properties=species:S:1:pos:R:3:initial_magmoms:R:1 pbc="T T T"
Si      -0.68955570      -0.56254257       2.25077141       0.00000000
Si       2.10365802      -1.26079713      -0.06632227       0.00000000
Si      -2.15065467      -0.48045726      -1.19167367       0.00000000
Si      -0.04784373       2.55917529      -0.13484042       0.00000000
Si       0.25892955       1.68637338      -2.29376252       0.00000000
Si      -3.37563009       1.15378812       0.31949975       0.00000000
Si      -1.43065296       0.42629301      -3.35635993       0.00000000
Si      -3.00773673      -0.28181700       2.19927129       0.00000000
Si      -0.60105213      -3.84167070      -0.22408214       0.00000000
Si       1.58280156      -3.61067850       0.63996019       0.00000000
