10
Lattice="16.28999089631971 0.0 0.0 0.0 16.28999089631971 0.0 0.0 0.0 34.31052061344573" Properties=species:S:1:pos:R:3:initial_magmoms:R:1 pbc="T T T"
Si       0.72000171       0.90675027      -2.16468627       0.00000000
Si      -0.82697814      -2.22757605       0.70412090       0.00000000
Si       2.15065467       0.48045726       1.19167367       0.00000000
Si      -1.22497542       1.63424538       1.51117341       0.00000000
Si      -1.88004519      -1.67299929      -2.26356924       0.00000000
Si       2.40958422       2.16683064      -1.10208885       0.00000000
Si      -0.85708206       0.19864026       3.39094496       0.00000000
Si       1.46109897      -0.08208531       3.44244508       0.00000000
Si       1.54960254      -3.36121344       0.96759153       0.00000000
Si       2.10281094       3.03963255       1.05683325       0.00000000
