10
Lattice="16.28999089631971 0.0 0.0 0.0 16.28999089631971 0.0 0.0 0.0 34.31052061344573" Properties=species:S:1:pos:R:3:initial_magmoms:R:1 pbc="T T T"
Si       1.68958251       1.26008037       1.06259742       0.00000000
Si      -1.28518326       1.41605712      -1.46118296       0.00000000
Si       1.43132085      -1.29349116      -1.47703443       0.00000000
Si      -0.72000171      -0.90675027       2.16468627       0.00000000
Si      -2.60004690      -2.57974956      -0.09888298       0.00000000
Si       1.43065296      -0.42629301       3.35635993       0.00000000
Si      -2.62759329       0.06437808      -2.84911291       0.00000000
Si      -2.78256006       2.71871955       0.05609773       0.00000000
Si       2.81603601      -2.69197137      -0.15745107       0.00000000
Si       0.09254349      -2.65764834      -2.85371053       0.00000000
