10
Lattice="16.28999089631971 0.0 0.0 0.0 16.28999089631971 0.0 0.0 0.0 34.31052061344573" Properties=species:S:1:pos:R:3:initial_magmoms:R:1 pbc="T T T"
Si      -0.58161816       0.77551803       2.10491731       0.00000000
Si      -1.24975251      -1.90342134      -0.51074670       0.00000000
Si       2.31818103      -0.28072557       0.05150012       0.00000000
Si      -0.36789336       1.43560512      -1.87977154       0.00000000
Si       0.85708206      -0.19864026      -3.39094496       0.00000000
Si      -0.85458969       3.02306562       1.55618884       0.00000000
Si      -2.60995122      -0.36124704       2.45426722       0.00000000
Si       0.03010392      -2.42621631      -2.68682406       0.00000000
Si       2.95397973       1.24168896       1.74767597       0.00000000
Si       1.39580865       0.54512856       3.36411412       0.00000000
