10
Lattice="16.28999089631971 0.0 0.0 0.0 16.28999089631971 0.0 0.0 0.0 34.31052061344573" Properties=species:S:1:pos:R:3:initial_magmoms:R:1 pbc="T T T"
Si       0.19274328      -2.02038354       1.10919113       0.00000000
Si       1.65890844       1.65095892       0.17014597       0.00000000
Si      -0.55216584      -0.50855751      -2.23931169       0.00000000
Si      -1.92151953       0.98170056       1.06935659       0.00000000
Si      -0.26192691      -0.93745692       3.22999422       0.00000000
Si       0.80541018       3.00185604      -1.62642252       0.00000000
Si       0.56676168       1.32576165      -3.20662874       0.00000000
Si      -1.68150267      -3.26365263       0.23111580       0.00000000
Si      -2.93728248      -0.52105194      -2.15538811       0.00000000
Si       0.95544108       2.96766333       1.98898199       0.00000000
