10
Lattice="16.28999089631971 0.0 0.0 0.0 16.28999089631971 0.0 0.0 0.0 34.31052061344573" Properties=species:S:1:pos:R:3:initial_magmoms:R:1 pbc="T T T"
Si       0.52621587       0.14020803       2.30518793       0.00000000
Si       0.29028780       2.29605921      -0.59957668       0.00000000
Si       1.84384459      -0.99326646      -1.15746606       0.00000000
Si      -1.84375107      -1.56454047      -0.32835187       0.00000000
Si       1.48416530      -1.99624176       2.59102903       0.00000000
Si      -1.60199118       0.41974443       3.26612321       0.00000000
Si      -1.37749869      -3.23010175       1.31011365       0.00000000
Si       2.54297230       2.47992444      -1.24941831       0.00000000
Si       3.77055575      -0.50440356       0.07349318       0.00000000
Si      -0.79879644       2.65328262      -2.67323709       0.00000000
