10
Lattice="16.28999089631971 0.0 0.0 0.0 16.28999089631971 0.0 0.0 0.0 34.31052061344573" Properties=species:S:1:pos:R:3:initial_magmoms:R:1 pbc="T T T"
Si      -1.32437700      -1.27638666      -1.46447677       0.00000000
Si      -0.73306629       1.36894644       1.77392353       0.00000000
Si       1.45253043       1.35430173      -1.36271171       0.00000000
Si      -0.20258244      -2.28340188       0.93822171       0.00000000
Si       3.06406755      -1.34278470       0.62187853       0.00000000
Si      -2.63091156      -2.66035248      -0.05263237       0.00000000
Si       0.80058834       1.26514656       3.51888896       0.00000000
Si      -2.62942917       0.07095924      -2.87652703       0.00000000
Si       0.08066808      -2.65439034      -2.85618088       0.00000000
Si       0.09677889       2.78664885      -2.84293702       0.00000000
