10
Lattice="16.28999089631971 0.0 0.0 0.0 16.28999089631971 0.0 0.0 0.0 34.31052061344573" Properties=species:S:1:pos:R:3:initial_magmoms:R:1 pbc="T T T"
Si      -1.75177773      -0.87190596      -1.30259964       0.00000000
Si      -1.03350276       0.13297527       2.14488908       0.00000000
Si       0.93382425       1.83145212      -1.26019182       0.00000000
Si       1.74022879      -1.74136842       0.06892987       0.00000000
Si      -0.40138560      -2.20227768      -2.64987161       0.00000000
Si       2.31636048       0.51613236      -2.63782861       0.00000000
Si       0.88339041      -3.57210378      -1.22059745       0.00000000
Si       3.64509017      -0.74583765      -1.09385432       0.00000000
Si      -2.70787041      -2.79940392      -0.15467191       0.00000000
Si      -1.55435922      -2.21690610       2.85117155       0.00000000
