10
Lattice="16.28999089631971 0.0 0.0 0.0 16.28999089631971 0.0 0.0 0.0 34.31052061344573" Properties=species:S:1:pos:R:3:initial_magmoms:R:1 pbc="T T T"
Si      -0.29862828      -0.56537703      -2.25382505       0.00000000
Si      -2.26027008       0.41282118       0.47640184       0.00000000
Si       0.89169831      -0.49824594       2.13857594       0.00000000
Si       1.32199866       1.78838136      -0.82616349       0.00000000
Si       0.22222818       1.78450434      -2.96010751       0.00000000
Si      -0.18389781       1.34998488       3.20175664       0.00000000
Si      -2.57098554       2.48275890      -0.64301383       0.00000000
Si       1.19555568      -2.46674583      -2.48325963       0.00000000
Si      -2.47492341       1.14026742       2.72669291       0.00000000
Si      -3.52689903      -1.59878205       0.13878613       0.00000000
