10
Lattice="16.28999089631971 0.0 0.0 0.0 16.28999089631971 0.0 0.0 0.0 34.31052061344573" Properties=species:S:1:pos:R:3:initial_magmoms:R:1 pbc="T T T"
Si       0.06738318      -0.97194285       2.08812302       0.00000000
Si      -0.89145396       2.16593469      -0.10728906       0.00000000
Si      -0.72039267      -1.52490690      -1.70077346       0.00000000
Si       2.39071130       0.58844367      -0.51675104       0.00000000
Si       1.14827625      -0.34316514      -2.66785033       0.00000000
Si       1.25125023       0.96852195       3.12404811       0.00000000
Si       1.09902344       3.49702317       0.75119496       0.00000000
Si       0.62387346      -3.51806985      -1.25940267       0.00000000
Si       2.77865765       2.06448057       1.58507832       0.00000000
Si      -1.11443148       2.92977279      -2.37284831       0.00000000
