10
Lattice="16.28999089631971 0.0 0.0 0.0 16.28999089631971 0.0 0.0 0.0 34.31052061344573" Properties=species:S:1:pos:R:3:initial_magmoms:R:1 pbc="T T T"
Si       1.10110041      -1.71637956       1.13753164       0.00000000
Si       1.81362176       1.26022698      -0.95311248       0.00000000
Si      -1.16160732       1.55655837       1.43253366       0.00000000
Si      -0.70938063      -1.58638536      -1.73354002       0.00000000
Si       1.39961466      -1.66428414      -2.64297519       0.00000000
Si       2.44073789      -2.52723060      -0.69622947       0.00000000
Si       0.36619987       3.32899182       1.32249976       0.00000000
Si      -0.76756851      -2.89812132       2.10460851       0.00000000
Si      -2.11025547       1.59870060      -2.54392066       0.00000000
Si       1.92849884       0.56264031      -3.15852536       0.00000000
