10
Lattice="16.28999089631971 0.0 0.0 0.0 16.28999089631971 0.0 0.0 0.0 34.31052061344573" Properties=species:S:1:pos:R:3:initial_magmoms:R:1 pbc="T T T"
Si       0.48375924      -0.97987608       2.10886302       0.00000000
Si       0.59329320       2.31137181      -0.00288209       0.00000000
Si       1.83592698      -1.11316086      -1.05316202       0.00000000
Si      -2.01821275      -1.08193293      -0.73616694       0.00000000
Si      -0.91481056      -2.87055864       1.99419719       0.00000000
Si      -0.56157332       3.06915003       1.86944407       0.00000000
Si      -1.08909076      -3.01760847      -1.71412026       0.00000000
Si       2.92882308       2.21153040      -0.17275357       0.00000000
Si       2.88019743      -0.93201606       2.11236269       0.00000000
Si      -2.97112888      -1.89512973       1.31896577       0.00000000
