10
Lattice="16.28999089631971 0.0 0.0 0.0 16.28999089631971 0.0 0.0 0.0 34.31052061344573" Properties=species:S:1:pos:R:3:initial_magmoms:R:1 pbc="T T T"
Si      -0.81521839       0.85633272       2.02857635       0.00000000
Si      -1.39856980      -1.89068256      -0.11466582       0.00000000
Si      -0.48375924       0.97987608      -2.10886302       0.00000000
Si       2.39643819       0.04786002       0.00349968       0.00000000
Si      -0.11222181       3.01130424       1.63180927       0.00000000
Si       1.35216774      -0.13328478      -3.16202504       0.00000000
Si       2.82139542      -1.35423657      -1.75978759       0.00000000
Si      -3.45488813      -0.91525365      -0.78989725       0.00000000
Si      -1.51434609      -2.61685818       2.12052860       0.00000000
Si       0.70946208       0.16816167       3.65939062       0.00000000
