10
Lattice="16.28999089631971 0.0 0.0 0.0 16.28999089631971 0.0 0.0 0.0 34.31052061344573" Properties=species:S:1:pos:R:3:initial_magmoms:R:1 pbc="T T T"
Si      -0.11577629      -0.72617562       2.23519443       0.00000000
Si       1.39856980       1.89068256       0.11466582       0.00000000
Si      -2.05631832       0.97542891      -0.67523142       0.00000000
Si       0.20974189      -1.53446913      -1.81386100       0.00000000
Si      -1.10340219       1.78862571      -2.73036414       0.00000000
Si       0.58335142       2.74701528       2.14324218       0.00000000
Si       0.91481056       2.87055864      -1.99419719       0.00000000
Si      -0.17428019      -0.14704983      -3.70831745       0.00000000
Si       2.33912182      -2.43131508      -1.69037736       0.00000000
Si      -0.15363262      -3.04130390       2.26888738       0.00000000
