10
Lattice="16.28999089631971 0.0 0.0 0.0 16.28999089631971 0.0 0.0 0.0 34.31052061344573" Properties=species:S:1:pos:R:3:initial_magmoms:R:1 pbc="T T T"
Si       0.32638644      -0.90960102      -2.10680439       0.00000000
Si      -2.22958786      -0.49847400       0.49925266       0.00000000
Si       1.75656699      -0.96894549       1.28352298       0.00000000
Si       0.07024248       2.35994859      -0.36091257       0.00000000
Si       3.30041916      -0.03259629      -0.28673318       0.00000000
Si      -1.79379778      -0.00410508       2.88129620       0.00000000
Si       0.64280340       0.30250530       3.39900793       0.00000000
Si       2.51250444      -0.02420694      -2.54621947       0.00000000
Si      -1.26939499       3.17079963       1.47284854       0.00000000
Si      -3.49085645       0.95161293      -1.07134660       0.00000000
