10
Lattice="16.28999089631971 0.0 0.0 0.0 16.28999089631971 0.0 0.0 0.0 34.31052061344573" Properties=species:S:1:pos:R:3:initial_magmoms:R:1 pbc="T T T"
Si       1.40633199      -1.13511978       1.47679082       0.00000000
Si       1.72198332       0.83067597      -1.36600007       0.00000000
Si      -0.70850097      -1.83283677      -1.45342333       0.00000000
Si      -1.32173802       1.57244112       1.44924632       0.00000000
Si       0.09886401       0.74575620      -3.24467368       0.00000000
Si      -2.53970548      -2.61105894      -0.12784450       0.00000000
Si       2.83361292      -2.34533646       0.00787770       0.00000000
Si       0.03999195      -2.48606577       2.83369376       0.00000000
Si      -2.67037572       0.22998222       2.82933632       0.00000000
Si       2.65233780       2.85702165       0.00098471       0.00000000
