10
Lattice="16.28999089631971 0.0 0.0 0.0 16.28999089631971 0.0 0.0 0.0 34.31052061344573" Properties=species:S:1:pos:R:3:initial_magmoms:R:1 pbc="T T T"
Si       1.51142693      -1.14875451       1.41976327       0.00000000
Si       1.52740742       1.09595862      -1.53896979       0.00000000
Si      -1.19210124       1.57574799       1.43304145       0.00000000
Si      -1.18386705      -1.94046480      -1.03592509       0.00000000
Si      -0.15222679       2.52850122      -2.37285315       0.00000000
Si      -1.25125023      -0.96852195      -3.12404811       0.00000000
Si       0.16278923      -2.49121341       2.79985327       0.00000000
Si      -2.55420588       0.22099014       2.80191190       0.00000000
Si       1.13946107      -0.38007828      -3.64079915       0.00000000
Si       2.83094951       2.66830200      -0.10606074       0.00000000
