10
Lattice="16.28999089631971 0.0 0.0 0.0 16.28999089631971 0.0 0.0 0.0 34.31052061344573" Properties=species:S:1:pos:R:3:initial_magmoms:R:1 pbc="T T T"
Si       0.78275079      -1.33468857       1.75412635       0.00000000
Si      -2.19555710       0.77095683       0.45382551       0.00000000
Si       1.30854312       1.82386098      -1.01435680       0.00000000
Si      -0.20003468      -1.92298563      -1.57166290       0.00000000
Si      -1.82276045       2.52718173       1.92416938       0.00000000
Si      -0.37211573      -0.57691035       3.62645250       0.00000000
Si      -3.29532758       0.76707981      -1.68011851       0.00000000
Si       3.11828067      -1.43452998       1.58425486       0.00000000
Si      -3.51755576      -1.01742453       1.27998900       0.00000000
Si      -0.17860356       1.83267387       3.42158427       0.00000000
