10
Lattice="16.28999089631971 0.0 0.0 0.0 16.28999089631971 0.0 0.0 0.0 34.31052061344573" Properties=species:S:1:pos:R:3:initial_magmoms:R:1 pbc="T T T"
Si      -0.70358139      -1.84046049      -1.34665438       0.00000000
Si       1.86144201       0.80330877      -1.32500443       0.00000000
Si      -1.64569725       1.77473034      -0.29534513       0.00000000
Si      -0.77830362       0.09513360       2.55785074       0.00000000
Si       1.59848883      -0.04248432       2.65464077       0.00000000
Si      -2.03231108      -0.57849048      -2.89062867       0.00000000
Si       0.68957199       2.12985234      -2.90493616       0.00000000
Si       2.85213465       2.49380352       0.03887384       0.00000000
Si      -3.41484731       0.73682928      -1.51299187       0.00000000
Si      -0.60968583       3.46618620      -1.54534671       0.00000000
