10
Lattice="16.28999089631971 0.0 0.0 0.0 16.28999089631971 0.0 0.0 0.0 34.31052061344573" Properties=species:S:1:pos:R:3:initial_magmoms:R:1 pbc="T T T"
Si       1.03601142       1.69145586      -1.25000159       0.00000000
Si      -1.76915006      -1.03790106      -1.21764675       0.00000000
Si      -0.73862118       1.82887881       1.35557512       0.00000000
Si       1.64569725      -1.77473034       0.29534513       0.00000000
Si       0.86739363      -1.67959674       2.85319587       0.00000000
Si       2.33526924       0.35512200      -2.60959104       0.00000000
Si      -0.38661383      -2.35322082      -2.59528354       0.00000000
Si       2.65660578       2.31268545       0.39350758       0.00000000
Si       1.40742342       2.23136415       2.61580124       0.00000000
Si       3.50713926      -0.97142157      -1.02965930       0.00000000
