10
Lattice="16.28999089631971 0.0 0.0 0.0 16.28999089631971 0.0 0.0 0.0 34.31052061344573" Properties=species:S:1:pos:R:3:initial_magmoms:R:1 pbc="T T T"
Si      -0.75833438      -1.88395479       1.13512990       0.00000000
Si      -1.07255219       0.13090644      -2.07009211       0.00000000
Si       2.28260856      -0.54009495      -0.40376643       0.00000000
Si      -0.67641197       1.80791374       1.40539402       0.00000000
Si       2.43672825       0.86165761       2.37102985       0.00000000
Si       0.76695438       0.92120001      -3.30101703       0.00000000
Si       2.71271343      -1.44116001       1.73827488       0.00000000
Si      -2.79539888       2.32822937       0.53805788       0.00000000
Si      -2.78937158       1.79867079      -1.78071701       0.00000000
Si       0.88582251      -2.57846265       2.63254479       0.00000000
