10
Lattice="16.28999089631971 0.0 0.0 0.0 16.28999089631971 0.0 0.0 0.0 34.31052061344573" Properties=species:S:1:pos:R:3:initial_magmoms:R:1 pbc="T T T"
Si       1.11602138      -1.33972218       1.50949220       0.00000000
Si       0.32312192      -1.40869404      -1.87778153       0.00000000
Si      -2.30451113       0.56540961       0.00113225       0.00000000
Si       1.37135084       1.99956636       0.16558267       0.00000000
Si       1.87402766       2.03142622      -2.13929647       0.00000000
Si      -1.97144579       2.77849963      -0.81641929       0.00000000
Si       2.15001284      -0.27139140      -2.77205144       0.00000000
Si       3.29787140      -1.14938982       0.62863771       0.00000000
Si      -3.00019187      -0.77230890      -1.80044558       0.00000000
Si      -0.37726011       3.49070006       0.72072720       0.00000000
