10
Lattice="16.28999089631971 0.0 0.0 0.0 16.28999089631971 0.0 0.0 0.0 34.5300574570662" Properties=species:S:1:pos:R:3:initial_magmoms:R:1 pbc="T T T"
Si       0.80541018       1.92352320      -1.01632375       0.00000000
Si      -1.87545141       1.24302474       0.74688556       0.00000000
Si      -0.89308296      -1.59451081      -1.65692573       0.00000000
Si       2.05516269      -0.05141124       2.06299944       0.00000000
Si      -2.34849672      -0.49717080       2.36856372       0.00000000
Si       2.61104265       0.87733053      -1.95170900       0.00000000
Si      -0.96757713      -2.53173641       2.09866900       0.00000000
Si      -0.89187750       2.36608992      -2.56192451       0.00000000
Si       1.07059509      -2.50017780      -2.51399677       0.00000000
Si      -1.67974335      -3.32559440      -0.17037140       0.00000000
