10
Lattice="16.28999089631971 0.0 0.0 0.0 16.28999089631971 0.0 0.0 0.0 34.5300574570662" Properties=species:S:1:pos:R:3:initial_magmoms:R:1 pbc="T T T"
Si       1.35830907      -1.35824391      -1.35278482       0.00000000
Si      -1.35814617      -1.35534429       1.35765356       0.00000000
Si       1.35697329       1.35951453       1.35848228       0.00000000
Si      -1.36301688       1.36161594      -1.35806792       0.00000000
Si       2.68449426       0.00299736      -2.69438189       0.00000000
Si       0.02155167       2.70992295      -2.69929207       0.00000000
Si       2.71210581      -2.70992295       0.00162291       0.00000000
Si      -0.00050499      -2.71275741       2.71565242       0.00000000
Si      -2.71562445      -2.71313208       0.00176103       0.00000000
Si       2.71399545       0.00201996       2.71579054       0.00000000
