10
Lattice="16.28999089631971 0.0 0.0 0.0 16.28999089631971 0.0 0.0 0.0 34.5300574570662" Properties=species:S:1:pos:R:3:initial_magmoms:R:1 pbc="T T T"
Si       1.38590433       1.57973904       1.07499035       0.00000000
Si       1.49009517      -1.17806022      -1.45927557       0.00000000
Si      -1.20664917       1.53937242      -1.46842604       0.00000000
Si      -1.29652110      -1.35593073       1.63907368       0.00000000
Si      -0.50728689       0.63930105       3.12794153       0.00000000
Si      -2.65606821      -2.51960688      -0.03801761       0.00000000
Si       2.81922885       0.27215703       2.44997801       0.00000000
Si      -0.10368585       2.97992970       2.33267934       0.00000000
Si       0.14952591      -2.51125011      -2.84690124       0.00000000
Si       2.64111399      -2.75731056       0.01498605       0.00000000
