10
Lattice="16.28999089631971 0.0 0.0 0.0 16.28999089631971 0.0 0.0 0.0 34.5300574570662" Properties=species:S:1:pos:R:3:initial_magmoms:R:1 pbc="T T T"
Si       0.13921434      -0.54700191       2.29442001       0.00000000
Si      -2.06635392       0.95014683      -0.65289469       0.00000000
Si       1.57600863       1.78572609      -0.04851476       0.00000000
Si      -0.52134516      -1.92713958      -1.35613423       0.00000000
Si       0.42007023      -2.86840836       2.00664635       0.00000000
Si       0.29634768       3.74502213       0.36018323       0.00000000
Si      -1.93776066       3.24990387      -0.36847045       0.00000000
Si       1.11404052      -2.04301035      -3.02645764       0.00000000
Si      -0.51293952      -3.78599148       0.06940545       0.00000000
Si       2.24567424       0.27665307       3.13567627       0.00000000
