10
Lattice="16.28999089631971 0.0 0.0 0.0 16.28999089631971 0.0 0.0 0.0 34.5300574570662" Properties=species:S:1:pos:R:3:initial_magmoms:R:1 pbc="T T T"
Si       0.28085589      -2.32140645      -0.28777366       0.00000000
Si      -0.13921434       0.54700191      -2.29442001       0.00000000
Si      -1.93280850       0.73793700       1.15731005       0.00000000
Si       2.10645990       0.82365498       0.84125626       0.00000000
Si       2.62544301      -2.42631405      -0.31422370       0.00000000
Si       1.43679429       2.33272800      -2.34293477       0.00000000
Si       3.07749051      -1.17294516       1.65005425       0.00000000
Si       3.28435722       1.83612735      -0.97616527       0.00000000
Si      -0.66055950      -1.38013767      -3.65055424       0.00000000
Si      -2.20556826       1.49714874      -2.94731470       0.00000000
