10
Lattice="16.28999089631971 0.0 0.0 0.0 16.28999089631971 0.0 0.0 0.0 34.5300574570662" Properties=species:S:1:pos:R:3:initial_magmoms:R:1 pbc="T T T"
Si       1.69728768      -0.44256672       1.54560077       0.00000000
Si       0.58424085       2.23500429      -0.71359857       0.00000000
Si      -0.03790683      -1.55062881      -1.89594292       0.00000000
Si      -2.12968944      -0.63526113       1.09432719       0.00000000
Si       0.89187750      -2.36608992       2.56192451       0.00000000
Si      -0.98357391      -1.12306518       3.30881007       0.00000000
Si      -1.33995024      -3.34648728      -0.97878956       0.00000000
Si       3.50292015      -1.48875939       0.61021552       0.00000000
Si      -1.05860565      -0.40304718      -3.72375801       0.00000000
Si       1.59788610       2.14244451      -2.95549833       0.00000000
