10
Lattice="16.28999089631971 0.0 0.0 0.0 16.28999089631971 0.0 0.0 0.0 34.5300574570662" Properties=species:S:1:pos:R:3:initial_magmoms:R:1 pbc="T T T"
Si      -0.02611287       0.95575059       2.10571314       0.00000000
Si       2.21309424      -0.44556408      -0.62761868       0.00000000
Si      -0.45690192      -2.31055731      -0.19695956       0.00000000
Si      -1.52414127       1.18644957      -1.40668627       0.00000000
Si       1.34653140      -2.35410048      -1.74093741       0.00000000
Si      -3.31825019       0.99328275       0.19633802       0.00000000
Si      -2.35194694       1.05230142       2.40536515       0.00000000
Si       0.69318837       3.15336933       1.53610499       0.00000000
Si       0.27903141      -1.19619099      -3.60003674       0.00000000
Si      -2.78228150      -2.73382038      -0.13345875       0.00000000
