10
Lattice="16.28999089631971 0.0 0.0 0.0 16.28999089631971 0.0 0.0 0.0 34.5300574570662" Properties=species:S:1:pos:R:3:initial_magmoms:R:1 pbc="T T T"
Si      -1.33872849      -1.36309833      -1.34319236       0.00000000
Si       1.32807483       1.35021294      -1.36887238       0.00000000
Si       1.35291708      -1.35493704       1.35834416       0.00000000
Si      -1.36197432       1.35648459       1.35713561       0.00000000
Si      -2.52946233       0.10658547      -2.67225502       0.00000000
Si       2.62891278      -0.09244575      -2.65569094       0.00000000
Si       2.71006956      -2.71199178      -0.00252070       0.00000000
Si       2.71191033       0.00125433       2.71472010       0.00000000
Si      -0.00330687      -2.71350675       2.71458198       0.00000000
Si      -0.00319284       2.71619460       2.71461651       0.00000000
