10
Lattice="16.28999089631971 0.0 0.0 0.0 16.28999089631971 0.0 0.0 0.0 34.5300574570662" Properties=species:S:1:pos:R:3:initial_magmoms:R:1 pbc="T T T"
Si      -1.35736425      -1.35710361      -1.35910382       0.00000000
Si       1.35767376       1.35808101      -1.35910382       0.00000000
Si       1.36155078      -1.35720135       1.35644501       0.00000000
Si      -1.35913986       1.35962856       1.35744638       0.00000000
Si       2.68822467       0.00856854       2.68454082       0.00000000
Si       0.01200573       2.71699281       2.70805580       0.00000000
Si       2.71278999      -2.71427238      -0.00100137       0.00000000
Si       2.71443528       2.71637379      -0.00272788       0.00000000
Si       0.00032580      -2.71448415      -2.71644661       0.00000000
Si      -2.71510317       0.00060273      -2.71620490       0.00000000
