10
Lattice="16.28999089631971 0.0 0.0 0.0 16.28999089631971 0.0 0.0 0.0 34.5300574570662" Properties=species:S:1:pos:R:3:initial_magmoms:R:1 pbc="T T T"
Si      -1.33750674      -1.33685514       1.39096127       0.00000000
Si       1.37720547       1.37390416       1.39161734       0.00000000
Si       1.23940836      -1.58320881      -1.41055364       0.00000000
Si      -1.51917282       1.28168973      -1.46171340       0.00000000
Si       2.38979187      -0.02609658      -2.80694445       0.00000000
Si      -2.67742440       2.72125169       0.03950586       0.00000000
Si      -2.68501554      -2.72197755      -0.00640533       0.00000000
Si       2.73254976      -2.69783577       0.03257913       0.00000000
Si      -2.69708643       0.01671597       2.75331092       0.00000000
Si       0.01746288      -2.69992089       2.75172253       0.00000000
