10
Lattice="16.28999089631971 0.0 0.0 0.0 16.28999089631971 0.0 0.0 0.0 34.5300574570662" Properties=species:S:1:pos:R:3:initial_magmoms:R:1 pbc="T T T"
Si      -1.35866745      -1.35593073       1.35692843       0.00000000
Si       1.35759231      -1.35751086      -1.35761903       0.00000000
Si       1.35747828       1.35817875       1.35844775       0.00000000
Si      -1.35917244       1.35868374      -1.35734279       0.00000000
Si      -2.71322982      -0.00205254       2.71150881       0.00000000
Si      -0.00198738      -2.71309950       2.71623943       0.00000000
Si       2.71482624      -2.71464705      -0.00031077       0.00000000
Si      -2.71533123      -2.71438641      -0.00013812       0.00000000
Si       2.71329498      -0.00143352      -2.71644661       0.00000000
Si      -0.00125433       2.71520334      -2.71485822       0.00000000
