10
Lattice="16.28999089631971 0.0 0.0 0.0 16.28999089631971 0.0 0.0 0.0 34.5300574570662" Properties=species:S:1:pos:R:3:initial_magmoms:R:1 pbc="T T T"
Si       0.96755595       1.77484437      -1.10206193       0.00000000
Si      -2.32764456       0.35578989      -0.16681480       0.00000000
Si       0.31843366      -2.00120369      -1.24156344       0.00000000
Si       1.05259790      -0.33993972       2.18672070       0.00000000
Si      -2.90054757      -1.82665634       0.58017435       0.00000000
Si       3.01204543      -1.26514656       1.34325452       0.00000000
Si       2.21523637      -2.93165591      -0.17710476       0.00000000
Si      -1.76355444      -3.05124406      -1.06929289       0.00000000
Si       0.00125270       1.71582570      -3.31108906       0.00000000
Si       0.39972239       3.81497139      -0.05887378       0.00000000
