10
Lattice="16.28999089631971 0.0 0.0 0.0 16.28999089631971 0.0 0.0 0.0 34.5300574570662" Properties=species:S:1:pos:R:3:initial_magmoms:R:1 pbc="T T T"
Si      -1.35669636      -1.35582324      -1.35765356       0.00000000
Si      -1.35479043       1.36062225       1.35813698       0.00000000
Si       1.35799956       1.35850455      -1.35730826       0.00000000
Si       1.35987291      -1.35593792       1.35806792       0.00000000
Si       2.69200395      -0.00648179       2.73371165       0.00000000
Si      -2.71420722      -2.71330217       0.00086325       0.00000000
Si      -0.00625536      -2.70761696       2.72007227       0.00000000
Si      -2.71404432       0.00164855      -2.71496181       0.00000000
Si      -2.71575477       2.71386513       0.00037983       0.00000000
Si       0.00092853      -2.71406780      -2.71558336       0.00000000
