10
Lattice="16.28999089631971 0.0 0.0 0.0 16.28999089631971 0.0 0.0 0.0 34.5300574570662" Properties=species:S:1:pos:R:3:initial_magmoms:R:1 pbc="T T T"
Si       1.86815349      -0.19982163       1.37405534       0.00000000
Si      -2.24896482      -0.59487042       0.29447249       0.00000000
Si      -0.28844703       2.36879276       0.01374297       0.00000000
Si       0.52061211      -1.30814436      -1.97194362       0.00000000
Si       0.10093284       2.70063635      -2.28616732       0.00000000
Si      -1.40973660      -0.72409899      -3.29945242       0.00000000
Si      -3.21528762      -0.33059775      -1.86545287       0.00000000
Si       1.80243963       1.49485380       2.93181070       0.00000000
Si       0.51564366      -3.54485910      -1.17188174       0.00000000
Si       3.78446022       0.42734078       0.16170435       0.00000000
