10
Lattice="16.28999089631971 0.0 0.0 0.0 16.28999089631971 0.0 0.0 0.0 34.5300574570662" Properties=species:S:1:pos:R:3:initial_magmoms:R:1 pbc="T T T"
Si       0.38937987       0.33184359      -2.29991029       0.00000000
Si       0.28844703      -2.36879276      -0.01374297       0.00000000
Si       1.46670273       0.96892920       1.63817590       0.00000000
Si      -2.00751444       1.13324643       0.72319793       0.00000000
Si      -1.96051779      -2.96366318       0.28072952       0.00000000
Si      -0.28771398       2.54233143      -2.55229062       0.00000000
Si       2.15660052      -2.56861439       1.36031237       0.00000000
Si       2.09088666      -0.87393895       2.91806773       0.00000000
Si       2.69491986       0.21499542      -2.72918821       0.00000000
Si       0.16433352       3.79570032      -0.58801268       0.00000000
