10
Lattice="16.28999089631971 0.0 0.0 0.0 16.28999089631971 0.0 0.0 0.0 34.5300574570662" Properties=species:S:1:pos:R:3:initial_magmoms:R:1 pbc="T T T"
Si      -1.40926419       0.78604137      -1.65771992       0.00000000
Si       1.45371960      -0.99965214      -1.54004142       0.00000000
Si      -0.84502746      -1.88322337       1.19947128       0.00000000
Si       1.41887529       2.15725212       0.32948599       0.00000000
Si      -1.96514415      -0.14270040       2.35698851       0.00000000
Si       2.01860793       1.34636850      -1.91818029       0.00000000
Si      -0.03710862       2.35222713      -2.72811777       0.00000000
Si      -1.68366924      -0.90873765      -3.22576524       0.00000000
Si       2.99887497      -2.26336518      -0.31014915       0.00000000
Si      -3.21489666       1.83223404      -0.72233468       0.00000000
