10
Lattice="16.28999089631971 0.0 0.0 0.0 16.28999089631971 0.0 0.0 0.0 34.5300574570662" Properties=species:S:1:pos:R:3:initial_magmoms:R:1 pbc="T T T"
Si       0.92004291       1.70929341       1.37159853       0.00000000
Si      -1.78395048      -0.99812088       1.27972781       0.00000000
Si      -1.85839578       0.67758255      -1.48106720       0.00000000
Si       1.74672783      -1.83122406       0.05883096       0.00000000
Si      -0.38465577      -2.26828476       2.68900728       0.00000000
Si       2.36200113       0.45595710       2.68860328       0.00000000
Si       2.30130459      -0.12253338      -2.92905144       0.00000000
Si       3.10145310       1.61991018      -1.42281496       0.00000000
Si      -3.51621279      -1.37459907      -0.44547567       0.00000000
Si       1.94189832       3.27896523       0.02507954       0.00000000
