10
Lattice="16.28999089631971 0.0 0.0 0.0 16.28999089631971 0.0 0.0 0.0 34.5300574570662" Properties=species:S:1:pos:R:3:initial_magmoms:R:1 pbc="T T T"
Si       1.35759231       1.35777150       1.35696296       0.00000000
Si      -1.35738054      -1.35829278       1.35744638       0.00000000
Si       1.35850455      -1.35513252      -1.36145187       0.00000000
Si      -1.35915615       1.35876519      -1.35979442       0.00000000
Si       0.00164529       2.72497491      -2.69595991       0.00000000
Si       2.71257822       2.71467963      -0.00024171       0.00000000
Si       2.71467963      -2.71440270      -0.00127761       0.00000000
Si      -2.71740006      -2.71218726       0.00044889       0.00000000
Si       0.00003258       2.71472850       2.71509994       0.00000000
Si      -2.71551042      -0.00024435       2.71461651       0.00000000
