10
Lattice="16.28999089631971 0.0 0.0 0.0 16.28999089631971 0.0 0.0 0.0 34.5300574570662" Properties=species:S:1:pos:R:3:initial_magmoms:R:1 pbc="T T T"
Si      -1.24962219       1.42118847       1.36597531       0.00000000
Si       1.37808513      -0.86970681       1.72850658       0.00000000
Si       1.57384206       1.36795275      -1.18538300       0.00000000
Si      -1.42773705      -1.60827912      -1.06901665       0.00000000
Si      -0.51539931      -1.12480821       3.16171195       0.00000000
Si       0.67007286       2.84410368       1.77229072       0.00000000
Si       2.47000383      -2.38589856       0.18666959       0.00000000
Si      -2.57875587      -0.02902878      -2.54327827       0.00000000
Si       2.30619159       1.24794432       2.62811867       0.00000000
Si       0.16330725       2.71756296      -2.56334025       0.00000000
