10
Lattice="16.28999089631971 0.0 0.0 0.0 16.28999089631971 0.0 0.0 0.0 34.5300574570662" Properties=species:S:1:pos:R:3:initial_magmoms:R:1 pbc="T T T"
Si       1.99111041       0.66103191      -1.14104639       0.00000000
Si      -2.05571655       1.00585863      -0.80993748       0.00000000
Si      -0.56488833      -2.34602064       0.37813887       0.00000000
Si      -0.59973264       0.81088362       2.24766629       0.00000000
Si       1.69437177       0.29382273       2.52439032       0.00000000
Si      -2.01860793      -1.34636850       1.91818029       0.00000000
Si      -3.42787212      -0.56032713       0.26046037       0.00000000
Si       3.43416006       0.82619622       0.75941998       0.00000000
Si      -0.84693339       3.19225356       1.48838443       0.00000000
Si      -1.82583207       0.86666058      -3.10287270       0.00000000
