10
Lattice="16.28999089631971 0.0 0.0 0.0 16.28999089631971 0.0 0.0 0.0 34.5300574570662" Properties=species:S:1:pos:R:3:initial_magmoms:R:1 pbc="T T T"
Si       1.32667389       1.36576989       1.32809581       0.00000000
Si       1.35123921      -1.35707103      -1.35744638       0.00000000
Si      -1.36155078       1.35720135      -1.35644501       0.00000000
Si      -1.35798327      -1.37733579       1.37895862       0.00000000
Si      -0.04338027       2.65797414       2.69317334       0.00000000
Si       2.70119151       0.07667703       2.66219986       0.00000000
Si       2.70646947       2.71888245      -0.00003453       0.00000000
Si       2.71147050      -2.71417464       0.00763115       0.00000000
Si       2.71134018       0.00019548      -2.71509994       0.00000000
Si      -0.00420282      -2.71477737      -2.71558336       0.00000000
