10
Lattice="16.28999089631971 0.0 0.0 0.0 16.28999089631971 0.0 0.0 0.0 34.5300574570662" Properties=species:S:1:pos:R:3:initial_magmoms:R:1 pbc="T T T"
Si      -1.66568508       0.02153538       1.66303756       0.00000000
Si       0.16509915      -1.55108493      -1.79062619       0.00000000
Si      -0.32081526       2.20463973      -0.86974357       0.00000000
Si       1.81092672      -0.59365647       1.50457903       0.00000000
Si      -0.55659672       1.41718113       3.31385147       0.00000000
Si      -2.14163001      -2.28276657       2.06451876       0.00000000
Si       1.13612976      -3.54768507      -0.98182820       0.00000000
Si       1.77588693       3.03295365      -1.57944024       0.00000000
Si       1.34299647      -0.53861256      -3.60804772       0.00000000
Si       3.61714563       0.82248210       1.17519663       0.00000000
