10
Lattice="16.28999089631971 0.0 0.0 0.0 16.28999089631971 0.0 0.0 0.0 34.5300574570662" Properties=species:S:1:pos:R:3:initial_magmoms:R:1 pbc="T T T"
Si       1.49314140      -1.11462696       1.44313276       0.00000000
Si       1.15038351       1.55711223      -1.39639082       0.00000000
Si      -1.23940836       1.58320881       1.41055364       0.00000000
Si      -0.67487841      -1.96116939      -1.61862639       0.00000000
Si       2.73489552      -2.55265929       0.05232688       0.00000000
Si       0.13983336      -2.47204008       2.80579663       0.00000000
Si      -0.58098285       2.75488891      -2.52058653       0.00000000
Si      -2.62466109      -2.75173938      -0.21764998       0.00000000
Si      -2.57691510       0.24635367       2.80151491       0.00000000
Si      -2.75858118       2.86489854      -0.05115976       0.00000000
