10
Lattice="16.28999089631971 0.0 0.0 0.0 16.28999089631971 0.0 0.0 0.0 34.5300574570662" Properties=species:S:1:pos:R:3:initial_magmoms:R:1 pbc="T T T"
Si      -1.35570267      -1.35607734       1.35882758       0.00000000
Si       1.36177884      -1.35532800      -1.35647954       0.00000000
Si       1.35931905       1.35884664       1.35844775       0.00000000
Si      -1.35496962       1.36306575      -1.36076126       0.00000000
Si       0.00153126      -2.71321353       2.71613584       0.00000000
Si      -2.71329498       0.00143352       2.71644661       0.00000000
Si      -2.71448415      -2.71578735       0.00134667       0.00000000
Si       2.71588509       2.71529865       0.00227899       0.00000000
Si      -2.71454931       2.71663686       0.00158838       0.00000000
Si       2.71643895      -2.71484253       0.00075966       0.00000000
