10
Lattice="16.28999089631971 0.0 0.0 0.0 16.28999089631971 0.0 0.0 0.0 34.5300574570662" Properties=species:S:1:pos:R:3:initial_magmoms:R:1 pbc="T T T"
Si      -1.34697123      -1.35277047       1.35233593       0.00000000
Si       1.35545832      -1.35338949      -1.35844775       0.00000000
Si      -1.35865116       1.36114353      -1.35606517       0.00000000
Si       1.34930070       1.36682874       1.36314384       0.00000000
Si      -0.05499504       2.63578716       2.76800001       0.00000000
Si       2.70904329      -2.70808218       0.00069060       0.00000000
Si      -0.00130320      -2.71168227      -2.71482369       0.00000000
Si      -2.71811682      -2.71013472       0.00172650       0.00000000
Si       2.71363707       0.00330687      -2.71506541       0.00000000
Si      -2.71612944       0.00296478      -2.71451292       0.00000000
