10
Lattice="16.28999089631971 0.0 0.0 0.0 16.28999089631971 0.0 0.0 0.0 34.5300574570662" Properties=species:S:1:pos:R:3:initial_magmoms:R:1 pbc="T T T"
Si       2.08198810       1.05004037      -0.17227055       0.00000000
Si      -1.13699313       1.22458772       1.64946724       0.00000000
Si      -1.39022118       0.27295850      -1.87453428       0.00000000
Si       0.15193683      -2.35042938       0.04806587       0.00000000
Si      -3.30652791      -0.35420391      -0.66218328       0.00000000
Si      -0.56409012       3.40703395       0.90247809       0.00000000
Si       2.30077584       1.03996663      -2.57159294       0.00000000
Si      -0.71008110      -1.46073474      -3.25718761       0.00000000
Si       1.76355444       3.05124406       1.06929289       0.00000000
Si      -1.22583879      -2.97967950       1.80726969       0.00000000
