10
Lattice="16.28999089631971 0.0 0.0 0.0 16.28999089631971 0.0 0.0 0.0 34.5300574570662" Properties=species:S:1:pos:R:3:initial_magmoms:R:1 pbc="T T T"
Si      -0.32672853       1.96866279      -1.42225933       0.00000000
Si       1.30888521       1.42910541       1.57063995       0.00000000
Si      -1.44720360      -1.29725089       1.62464844       0.00000000
Si      -1.04083326      -1.93489362      -2.33861851       0.00000000
Si       2.56132557       2.98460493       0.22662089       0.00000000
Si      -2.62083294       2.48572368      -1.69898337       0.00000000
Si       2.61656496       0.01361844       3.09552612       0.00000000
Si      -0.08443107      -2.70774728       3.10353019       0.00000000
Si      -0.09461232       2.71603170       3.10616483       0.00000000
Si      -3.15336933      -2.75252849       0.29519763       0.00000000
