10
Lattice="16.28999089631971 0.0 0.0 0.0 16.28999089631971 0.0 0.0 0.0 34.5300574570662" Properties=species:S:1:pos:R:3:initial_magmoms:R:1 pbc="T T T"
Si      -1.54515537       1.26371304      -1.22989227       0.00000000
Si      -1.35208629      -1.84199894       0.57437330       0.00000000
Si       1.90729836      -0.24014881      -1.54625684       0.00000000
Si       1.04083326       1.93489362       2.33861851       0.00000000
Si      -2.11253607      -0.81763487       2.63381613       0.00000000
Si      -2.99887497       2.26336518       0.31014915       0.00000000
Si       2.24148771      -2.62343024      -1.69442540       0.00000000
Si       1.12638834       0.63016888      -3.69965601       0.00000000
Si      -0.35295543      -3.89248640       0.85182246       0.00000000
Si      -0.40637034       0.63764273       3.96326695       0.00000000
