10
Lattice="16.28999089631971 0.0 0.0 0.0 16.28999089631971 0.0 0.0 0.0 34.5300574570662" Properties=species:S:1:pos:R:3:initial_magmoms:R:1 pbc="T T T"
Si      -1.97755713       0.55631979      -1.13659201       0.00000000
Si       1.90582967       1.32322041      -0.41546588       0.00000000
Si       1.24261490      -2.01231999      -0.21046082       0.00000000
Si      -0.47128599       0.96154983       2.23848129       0.00000000
Si      -1.77059268       2.48407839       0.24260832       0.00000000
Si       1.64108459       0.08682570       3.04175446       0.00000000
Si      -3.45768282      -0.79684164       0.09910132       0.00000000
Si       2.20891815      -1.95330132       1.99856631       0.00000000
Si       3.16948733       1.15201251       1.59939863       0.00000000
Si      -2.43823833      -2.85509943       0.89581378       0.00000000
