10
Lattice="16.28999089631971 0.0 0.0 0.0 16.28999089631971 0.0 0.0 0.0 34.5300574570662" Properties=species:S:1:pos:R:3:initial_magmoms:R:1 pbc="T T T"
Si      -2.08037961      -0.74095065       0.75120182       0.00000000
Si       0.55456047      -1.50224751      -1.69849995       0.00000000
Si      -1.01944449       2.05825779      -0.79671246       0.00000000
Si       1.35195597      -0.51725637       2.03799966       0.00000000
Si      -1.45619568      -2.58381880       2.03109364       0.00000000
Si      -1.67404185       2.92177440       1.27716395       0.00000000
Si       2.81973384      -1.09371060      -2.19259081       0.00000000
Si       0.52582491      -3.65133182      -0.73901270       0.00000000
Si      -3.15343449       1.14652278       1.77374098       0.00000000
Si       2.43823833       2.85509943      -0.89581378       0.00000000
