10
Lattice="16.28999089631971 0.0 0.0 0.0 16.28999089631971 0.0 0.0 0.0 34.5300574570662" Properties=species:S:1:pos:R:3:initial_magmoms:R:1 pbc="T T T"
Si       1.34087877       1.36994013       1.38700412       0.00000000
Si      -1.36765953      -1.35032697       1.38790191       0.00000000
Si      -1.48784715       1.28552535      -1.36460101       0.00000000
Si       1.50833997      -1.32737436      -1.53872583       0.00000000
Si       0.08032599       2.52501516      -2.61702071       0.00000000
Si      -0.14617017      -2.52599256      -2.82170952       0.00000000
Si       2.69381214       2.71223613       0.01790384       0.00000000
Si       2.71020793      -2.70586674       0.00294542       0.00000000
Si      -2.72632698      -2.69658144       0.05087316       0.00000000
Si       2.70193095       0.01039302       2.74648777       0.00000000
