10
Lattice="16.28999089631971 0.0 0.0 0.0 16.28999089631971 0.0 0.0 0.0 34.5300574570662" Properties=species:S:1:pos:R:3:initial_magmoms:R:1 pbc="T T T"
Si      -1.01973771      -2.04248907       0.72592580       0.00000000
Si       2.26344730       0.24231375      -0.75303191       0.00000000
Si      -1.00462059       0.66388266      -2.08996743       0.00000000
Si      -1.04666508       1.71825291       1.36238418       0.00000000
Si      -3.27650544      -1.68059043      -0.12731239       0.00000000
Si       2.52750168       2.63642247      -0.79657434       0.00000000
Si      -2.84982147      -0.75386862      -2.35056591       0.00000000
Si      -1.12273938      -1.90145025       3.13495114       0.00000000
Si      -1.19824353       3.71576529       0.08297577       0.00000000
Si       0.13214448       1.83239694       3.44772457       0.00000000
