10
Lattice="16.28999089631971 0.0 0.0 0.0 16.28999089631971 0.0 0.0 0.0 34.5300574570662" Properties=species:S:1:pos:R:3:initial_magmoms:R:1 pbc="T T T"
Si       1.35293337       1.34229600      -1.36910028       0.00000000
Si      -1.35368271       1.35246096       1.36141734       0.00000000
Si       1.36105218      -1.35954711       1.35948365       0.00000000
Si      -1.34087877      -1.36994013      -1.38700412       0.00000000
Si      -2.71018359       2.70974376      -0.00245164       0.00000000
Si       0.00306252       2.71147050       2.71679191       0.00000000
Si      -2.70853830      -2.72026710       0.00089778       0.00000000
Si      -2.71207323      -0.00413766       2.71675738       0.00000000
Si       2.72104806       2.70982521      -0.00024171       0.00000000
Si       2.71826899      -0.00351864       2.71717174       0.00000000
