10
Lattice="16.28999089631971 0.0 0.0 0.0 16.28999089631971 0.0 0.0 0.0 34.5300574570662" Properties=species:S:1:pos:R:3:initial_magmoms:R:1 pbc="T T T"
Si       1.31057937      -1.38670254       1.34971164       0.00000000
Si      -1.34315937      -1.37020077      -1.36942831       0.00000000
Si       1.37365425       1.35079938      -1.36645873       0.00000000
Si      -1.44314739       1.32462135       1.45468307       0.00000000
Si       2.44673098       0.23319135       2.64545277       0.00000000
Si      -2.69451261      -2.71785618       0.00331489       0.00000000
Si      -2.72155401       2.69716041       0.00631900       0.00000000
Si      -2.69954622      -0.01200573      -2.72784153       0.00000000
Si       0.01668096       2.70311929      -2.72732358       0.00000000
Si       2.72216718       2.71165199       0.01229271       0.00000000
