10
Lattice="16.28999089631971 0.0 0.0 0.0 16.28999089631971 0.0 0.0 0.0 34.5300574570662" Properties=species:S:1:pos:R:3:initial_magmoms:R:1 pbc="T T T"
Si      -1.27840662       1.37253906      -1.44836407       0.00000000
Si       1.06412796       1.71596321       1.29363480       0.00000000
Si       1.44314739      -1.32462135      -1.45468307       0.00000000
Si      -1.21176423      -1.39129632       1.60772037       0.00000000
Si      -2.54128887      -2.58818778      -0.05731993       0.00000000
Si      -2.83361292       2.49358265       0.03794855       0.00000000
Si      -2.61053766       0.02308293      -2.82400780       0.00000000
Si       2.75372676      -2.71132389      -0.10497143       0.00000000
Si       0.09998802      -2.69482212      -2.82411139       0.00000000
Si       0.10230120       2.73944762      -2.81986419       0.00000000
