10
Lattice="16.28999089631971 0.0 0.0 0.0 16.28999089631971 0.0 0.0 0.0 34.5300574570662" Properties=species:S:1:pos:R:3:initial_magmoms:R:1 pbc="T T T"
Si      -1.20394503      -0.95066811      -1.84742817       0.00000000
Si       2.36071978      -0.44097030      -0.03874275       0.00000000
Si      -0.33418935       2.38328143       0.14816856       0.00000000
Si      -0.26528265      -1.07841429       2.22221762       0.00000000
Si       0.17383059      -0.32141799      -3.60663199       0.00000000
Si       2.92649591       1.13655330       1.84394063       0.00000000
Si       1.81705243       3.07493365       1.00952132       0.00000000
Si       2.52174480      -2.77039143       0.48324842       0.00000000
Si      -2.24148771       2.62343024       1.69442540       0.00000000
Si      -2.59444314      -1.26905616       2.54624786       0.00000000
