10
Lattice="16.28999089631971 0.0 0.0 0.0 16.28999089631971 0.0 0.0 0.0 34.5300574570662" Properties=species:S:1:pos:R:3:initial_magmoms:R:1 pbc="T T T"
Si       1.35983870      -1.35371529       1.36190076       0.00000000
Si      -1.35708975       1.36194174       1.36210794       0.00000000
Si      -1.34881277      -1.35431802      -1.38143442       0.00000000
Si       1.36257542       1.37427327      -1.37559884       0.00000000
Si       2.71047518      -2.71065600       0.00321130       0.00000000
Si      -2.71711566      -2.71164969      -0.00113949       0.00000000
Si       0.00030462      -2.71246419       2.71910542       0.00000000
Si       2.71342367       2.71982727       0.00172650       0.00000000
Si      -2.71522602       0.00226431       2.71903636       0.00000000
Si       2.71503638       0.00232947       2.72000321       0.00000000
