10
Lattice="16.28999089631971 0.0 0.0 0.0 16.28999089631971 0.0 0.0 0.0 34.5300574570662" Properties=species:S:1:pos:R:3:initial_magmoms:R:1 pbc="T T T"
Si       1.35355565      -1.35169533       1.35900023       0.00000000
Si      -1.35670029      -1.35558864      -1.35758450       0.00000000
Si       1.35805169       1.36001952      -1.35737732       0.00000000
Si      -1.35539709       1.35791811       1.36435239       0.00000000
Si       2.68119065       0.01363473       2.71876012       0.00000000
Si      -2.71357584      -2.71187775      -0.00044889       0.00000000
Si       2.71432451      -2.71344159      -0.00010359       0.00000000
Si       0.00070047      -2.71251306      -2.71554883       0.00000000
Si       2.71543223       0.00228060      -2.71465104       0.00000000
Si      -2.71483017       0.00221544      -2.71561789       0.00000000
