10
Lattice="16.28999089631971 0.0 0.0 0.0 16.28999089631971 0.0 0.0 0.0 34.5300574570662" Properties=species:S:1:pos:R:3:initial_magmoms:R:1 pbc="T T T"
Si       0.10596482      -1.33568226       2.04300652       0.00000000
Si      -0.82121052      -1.93386735      -1.26880767       0.00000000
Si       2.05668580       0.76312134      -1.16103930       0.00000000
Si      -1.81742547       1.72160865      -0.07061401       0.00000000
Si       0.67463732       2.09262969      -2.68657809       0.00000000
Si       1.20592426       2.27859633       2.33854945       0.00000000
Si      -2.09507223      -0.63263844      -2.70864281       0.00000000
Si       2.50871702      -1.73503161       2.09003649       0.00000000
Si      -0.77056491       3.42301770      -1.34584427       0.00000000
Si      -3.52324911       0.64773927      -1.27453966       0.00000000
