10
Lattice="16.28999089631971 0.0 0.0 0.0 16.28999089631971 0.0 0.0 0.0 34.5300574570662" Properties=species:S:1:pos:R:3:initial_magmoms:R:1 pbc="T T T"
Si      -0.89241670      -1.77482808       1.22464477       0.00000000
Si       1.75839147       0.89037882       1.27964773       0.00000000
Si      -1.57445619       1.74860118      -0.20112424       0.00000000
Si      -0.68700794       1.62841356      -2.64150288       0.00000000
Si      -2.20135634      -0.38540511       2.67402057       0.00000000
Si       1.73607417       1.96177212      -2.35725129       0.00000000
Si       0.52642764       2.33352621       2.68492172       0.00000000
Si       2.44824039       2.75563010      -0.08821088       0.00000000
Si      -3.44442995       0.99896796       1.20304621       0.00000000
Si      -1.70470777      -3.36116457      -0.37691686       0.00000000
