10
Lattice="16.28999089631971 0.0 0.0 0.0 16.28999089631971 0.0 0.0 0.0 34.5300574570662" Properties=species:S:1:pos:R:3:initial_magmoms:R:1 pbc="T T T"
Si       1.35700239      -1.35677781      -1.35696296       0.00000000
Si      -1.35892084      -1.35545832       1.35841322       0.00000000
Si       1.35822577       1.35755973       1.35765356       0.00000000
Si      -1.35820408       1.35821133      -1.35734279       0.00000000
Si      -0.00021442      -2.71280628      -2.71465104       0.00000000
Si      -2.71494931      -0.00079821      -2.71271736       0.00000000
Si       2.71663258      -0.00234576       2.71216488       0.00000000
Si       0.00010499       2.71407690      -2.71489275       0.00000000
Si       2.71399360       0.00079821      -2.71499634       0.00000000
Si       2.71453117      -2.71467963       0.00051795       0.00000000
