10
Lattice="16.28999089631971 0.0 0.0 0.0 16.28999089631971 0.0 0.0 0.0 34.5300574570662" Properties=species:S:1:pos:R:3:initial_magmoms:R:1 pbc="T T T"
Si       1.35456237      -1.35387819      -1.35458038       0.00000000
Si      -1.33573602      -1.34719929       1.38244615       0.00000000
Si       1.37339361       1.32302493       1.37070593       0.00000000
Si      -1.35840681       1.35990549      -1.35451132       0.00000000
Si      -0.02562417       2.62137051       2.69742054       0.00000000
Si       2.71124244      -2.71104696       0.00473062       0.00000000
Si      -0.00210141      -2.71233387      -2.71164693       0.00000000
Si       2.71322982       0.00205254      -2.71150881       0.00000000
Si      -2.71663258       0.00234576      -2.71216488       0.00000000
Si      -2.71555019      -2.71443528       0.01008278       0.00000000
