10
Lattice="16.28999089631971 0.0 0.0 0.0 16.28999089631971 0.0 0.0 0.0 34.5300574570662" Properties=species:S:1:pos:R:3:initial_magmoms:R:1 pbc="T T T"
Si       1.61916247       1.01828790      -1.32150057       0.00000000
Si       0.32284499      -0.51883650       2.24980715       0.00000000
Si      -1.13615161      -1.61989389      -1.29574113       0.00000000
Si      -0.73571993       1.94484585       1.18852524       0.00000000
Si      -2.06334583      -0.53937819       2.53557807       0.00000000
Si      -2.44673098      -0.23319135      -2.64545277       0.00000000
Si       0.27543621       2.47846064      -2.63316006       0.00000000
Si       0.84033757      -2.76431526       2.38865259       0.00000000
Si       3.00426859       2.27625939       0.08342467       0.00000000
Si       1.29233620       3.25562885       1.54124998       0.00000000
