10
Lattice="16.28999089631971 0.0 0.0 0.0 16.28999089631971 0.0 0.0 0.0 34.5300574570662" Properties=species:S:1:pos:R:3:initial_magmoms:R:1 pbc="T T T"
Si      -1.88095417      -0.17428671      -1.36020878       0.00000000
Si      -0.27769563      -0.51028425       2.28357757       0.00000000
Si       1.07303859       2.08274166      -0.36342906       0.00000000
Si       1.76090013      -1.06790724      -1.18420898       0.00000000
Si       2.37884499       1.90887849       1.68489510       0.00000000
Si      -0.76505985       0.18322992      -3.41367792       0.00000000
Si       1.59537744       0.24718446      -3.17414278       0.00000000
Si      -2.14500856      -2.56839543      -1.31666636       0.00000000
Si       1.79605395      -1.69228665       2.80853832       0.00000000
Si      -0.97489134       1.55675385       3.34302938       0.00000000
