10
Lattice="16.28999089631971 0.0 0.0 0.0 16.28999089631971 0.0 0.0 0.0 34.26581377546328" Properties=species:S:1:pos:R:3:initial_magmoms:R:1 pbc="T T T"
Si       1.80944433       0.85972104       1.25433992       0.00000000
Si      -0.77335961      -1.84593393       1.28075887       0.00000000
Si      -1.42076656       1.93906386      -0.10081008       0.00000000
Si       2.97201276       0.90741816      -0.90698233       0.00000000
Si      -1.99249605      -0.29387160       2.69260713       0.00000000
Si       1.50174252       1.15281072      -2.79458427       0.00000000
Si      -0.27789111       2.68950411      -2.20675391       0.00000000
Si      -1.59001477      -0.78016068      -3.18072594       0.00000000
Si      -3.30519932       1.02801303       1.17290716       0.00000000
Si       0.74142306       2.44030716       2.69993660       0.00000000
