10
Lattice="16.28999089631971 0.0 0.0 0.0 16.28999089631971 0.0 0.0 0.0 34.26581377546328" Properties=species:S:1:pos:R:3:initial_magmoms:R:1 pbc="T T T"
Si       1.32248736       1.51901548      -1.23644832       0.00000000
Si       1.47027024      -0.24539256       1.88760194       0.00000000
Si      -1.77963363       1.53669339       0.58783036       0.00000000
Si      -0.85835268      -1.98998640      -1.16157747       0.00000000
Si      -1.50174252      -1.15281072       2.79458427       0.00000000
Si       2.59884144      -2.22979149      -0.10735485       0.00000000
Si      -2.81551473       1.37065235      -1.51561206       0.00000000
Si       1.47328389       3.33085607       0.29578267       0.00000000
Si      -1.55377278       0.38209824      -3.29274095       0.00000000
Si      -3.09175729      -1.93297140      -0.38614167       0.00000000
