10
Lattice="16.28999089631971 0.0 0.0 0.0 16.28999089631971 0.0 0.0 0.0 34.26581377546328" Properties=species:S:1:pos:R:3:initial_magmoms:R:1 pbc="T T T"
Si       1.21995810      -1.43798362       1.41512407       0.00000000
Si      -1.48866165       1.29271901       1.40979231       0.00000000
Si      -0.87011406      -0.80389358      -2.14836634       0.00000000
Si       1.91720268       0.79357712      -1.62091237       0.00000000
Si       2.68620471       2.49909125      -0.13356479       0.00000000
Si       1.14995997      -1.38443513      -3.24706600       0.00000000
Si      -2.70961344       2.65736489      -0.09848686       0.00000000
Si       2.57810427      -0.06471040       2.79189098       0.00000000
Si       2.66745492      -2.73771110      -0.01881194       0.00000000
Si      -0.13877451       2.65065341       2.78918397       0.00000000
