10
Lattice="16.28999089631971 0.0 0.0 0.0 16.28999089631971 0.0 0.0 0.0 34.26581377546328" Properties=species:S:1:pos:R:3:initial_magmoms:R:1 pbc="T T T"
Si      -0.99711090      -0.23708517      -2.11053545       0.00000000
Si      -2.02007403       0.58054155       1.09869967       0.00000000
Si       1.33327134      -2.01085440       0.14443049       0.00000000
Si       0.76724271       2.17801226       1.62615363       0.00000000
Si       2.60864802       0.54678704       1.70582169       0.00000000
Si       1.05541281       3.23202413      -0.83505835       0.00000000
Si      -3.12365637      -1.56775011       1.05953382       0.00000000
Si       2.34576000      -1.97166066      -2.00900578       0.00000000
Si      -1.14995997       1.38443513       3.24706600       0.00000000
Si      -3.12064272       2.00849852      -0.53228545       0.00000000
