10
Lattice="16.28999089631971 0.0 0.0 0.0 16.28999089631971 0.0 0.0 0.0 34.26581377546328" Properties=species:S:1:pos:R:3:initial_magmoms:R:1 pbc="T T T"
Si       1.88753859       0.92129724      -1.26612253       0.00000000
Si      -0.96036066      -1.84197546      -1.31032545       0.00000000
Si       0.21196548      -0.91254951       2.28522266       0.00000000
Si      -1.88926533       1.90301409      -0.09693804       0.00000000
Si      -2.15976078      -0.54420003      -2.80260247       0.00000000
Si       0.56830923       2.18088891      -2.78553809       0.00000000
Si       2.66356161       2.74450662       0.20340198       0.00000000
Si      -2.52371196      -2.89825164       0.25898117       0.00000000
Si      -3.51099999       0.75105045      -1.40911385       0.00000000
Si      -0.79143336       3.56421942      -1.44872515       0.00000000
