10
Lattice="16.28999089631971 0.0 0.0 0.0 16.28999089631971 0.0 0.0 0.0 34.26581377546328" Properties=species:S:1:pos:R:3:initial_magmoms:R:1 pbc="T T T"
Si      -2.09168487       0.94943007      -0.44538730       0.00000000
Si       1.05650424       2.02621536       0.53629455       0.00000000
Si       0.32814576      -1.80911853       1.48220287       0.00000000
Si       0.82810215      -1.13081922      -1.94660770       0.00000000
Si       2.96544789      -1.64884122      -1.12724311       0.00000000
Si       2.62262484      -2.12244039       1.19179993       0.00000000
Si      -0.70944579      -3.53106927       0.28070570       0.00000000
Si      -1.95401808       1.98816192      -2.52210237       0.00000000
Si      -0.54275022       3.27960054       1.78113800       0.00000000
Si      -3.70955391      -0.73459755      -0.32463450       0.00000000
