10
Lattice="16.28999089631971 0.0 0.0 0.0 16.28999089631971 0.0 0.0 0.0 34.26581377546328" Properties=species:S:1:pos:R:3:initial_magmoms:R:1 pbc="T T T"
Si       1.23149142      -1.39238775       1.42268997       0.00000000
Si      -1.84603167      -0.95221566      -1.21413680       0.00000000
Si       1.89503199       0.54902187      -1.40496567       0.00000000
Si      -1.45824822       1.34001540       1.40815440       0.00000000
Si       2.62827747       2.59871112      -0.10812241       0.00000000
Si       2.55451635      -2.75908617      -0.00945394       0.00000000
Si      -0.85035429      -1.52557479      -3.33392646       0.00000000
Si       1.41709968      -0.82609848      -3.42781485       0.00000000
Si       2.59388928      -0.01966203       2.77986709       0.00000000
Si      -0.12196323       2.69552259       2.78284822       0.00000000
