10
Lattice="16.28999089631971 0.0 0.0 0.0 16.28999089631971 0.0 0.0 0.0 34.26581377546328" Properties=species:S:1:pos:R:3:initial_magmoms:R:1 pbc="T T T"
Si      -1.39212711      -1.23689970      -1.35939412       0.00000000
Si      -0.91085535      -0.19803753       2.12437884       0.00000000
Si       1.43409015       1.50760692      -1.10589549       0.00000000
Si       0.95737959       0.84745467       2.94264693       0.00000000
Si      -0.02406033      -2.56837914      -2.68174688       0.00000000
Si      -2.80405309      -2.48427387       0.10646394       0.00000000
Si       2.70646947       0.13413186      -2.63778382       0.00000000
Si      -0.40628889      -2.41785954       2.92051121       0.00000000
Si      -2.74414335       0.14965623      -2.65169575       0.00000000
Si       0.00474039       2.84576526      -2.63939431       0.00000000
