10
Lattice="16.28999089631971 0.0 0.0 0.0 16.28999089631971 0.0 0.0 0.0 34.26581377546328" Properties=species:S:1:pos:R:3:initial_magmoms:R:1 pbc="T T T"
Si      -0.97761177       2.04501402      -0.64584242       0.00000000
Si       2.16844335       0.28479807       0.99977421       0.00000000
Si      -0.99891909      -0.87260643       2.02843451       0.00000000
Si      -0.26982756      -0.81502128      -2.38918520       0.00000000
Si      -3.15646443       1.31030244      -1.25649383       0.00000000
Si       3.14519175       2.10639474      -0.07696106       0.00000000
Si      -2.05542333      -2.89882179       1.49213996       0.00000000
Si       1.92593412      -0.75917916      -3.38015309       0.00000000
Si       0.55993617      -1.00149291       3.83996630       0.00000000
Si      -0.63125379       2.64601728      -2.95278962       0.00000000
