10
Lattice="16.28999089631971 0.0 0.0 0.0 16.28999089631971 0.0 0.0 0.0 34.26581377546328" Properties=species:S:1:pos:R:3:initial_magmoms:R:1 pbc="T T T"
Si      -0.63206829       2.16234179      -0.71440835       0.00000000
Si      -1.76795370      -1.12775670      -1.09869967       0.00000000
Si       2.16270927      -0.21688506      -0.97393777       0.00000000
Si       0.48847194      -0.30612168       2.35204104       0.00000000
Si       3.35197701       1.27544414       0.49572380       0.00000000
Si       0.12887019       2.29256405      -2.98825476       0.00000000
Si       2.76894162       0.30548932       2.54050312       0.00000000
Si       1.97273529       0.77131588      -3.12761390       0.00000000
Si      -3.07131171      -2.16481068       0.52087493       0.00000000
Si       2.70254358      -2.62024650      -0.91626837       0.00000000
