10
Lattice="16.28999089631971 0.0 0.0 0.0 16.28999089631971 0.0 0.0 0.0 34.26581377546328" Properties=species:S:1:pos:R:3:initial_magmoms:R:1 pbc="T T T"
Si      -1.47027024       0.24539256      -1.88760194       0.00000000
Si       1.10358234       2.14829166       0.03916585       0.00000000
Si      -1.16256843      -0.04769712       2.16132225       0.00000000
Si       1.12857120      -1.98439893      -1.99495679       0.00000000
Si      -2.97201276      -0.90741816       0.90698233       0.00000000
Si      -0.14778288       1.76440804      -3.12405025       0.00000000
Si       3.12365637       1.56775011      -1.05953382       0.00000000
Si       0.46599174      -1.19399184       3.58447138       0.00000000
Si       1.86911460      -2.63819808       2.09023435       0.00000000
Si       0.00301365       3.57624863      -1.59181927       0.00000000
