10
Lattice="16.28999089631971 0.0 0.0 0.0 16.28999089631971 0.0 0.0 0.0 34.26581377546328" Properties=species:S:1:pos:R:3:initial_magmoms:R:1 pbc="T T T"
Si      -1.36042677      -1.34020813       1.37423123       0.00000000
Si      -1.21995810       1.43798362      -1.41512407       0.00000000
Si       1.35814617       1.37327323       1.37676690       0.00000000
Si       1.44749682      -1.29972748      -1.43393602       0.00000000
Si       2.72779308      -2.68701646       0.01026947       0.00000000
Si       0.69724458       2.23156075      -3.03603645       0.00000000
Si      -0.00270414      -2.69900590       2.73424214       0.00000000
Si      -2.72766276      -2.70819346      -0.01818488       0.00000000
Si      -2.70861975       2.73070264      -0.00533176       0.00000000
Si       2.72056032       2.72527807       0.01335340       0.00000000
