10
Lattice="16.28999089631971 0.0 0.0 0.0 16.28999089631971 0.0 0.0 0.0 34.26581377546328" Properties=species:S:1:pos:R:3:initial_magmoms:R:1 pbc="T T T"
Si       2.27069568      -0.13123224       0.42753480       0.00000000
Si       0.10399536       0.46670850      -2.26449183       0.00000000
Si      -0.35008839       1.75591539       1.57547447       0.00000000
Si      -1.66962726      -1.74768894       0.21381880       0.00000000
Si       0.65234934       0.70701858       3.44621761       0.00000000
Si       2.27227581      -0.83421090       2.71717775       0.00000000
Si       1.51949862       3.12370524       1.30138207       0.00000000
Si      -0.60106842      -3.30327805       1.70657554       0.00000000
Si      -2.66400144       1.89508086       1.88780753       0.00000000
Si       3.19598397       2.01474720       0.22163141       0.00000000
