10
Lattice="16.28999089631971 0.0 0.0 0.0 16.28999089631971 0.0 0.0 0.0 34.26581377546328" Properties=species:S:1:pos:R:3:initial_magmoms:R:1 pbc="T T T"
Si      -0.75114819       1.68492357       1.41829709       0.00000000
Si       2.26849653       0.41721948       0.34724995       0.00000000
Si      -0.86279985      -2.12123819       0.46954471       0.00000000
Si      -0.13615182       0.49824594      -2.31537660       0.00000000
Si      -0.04460202      -3.06200591      -1.48179168       0.00000000
Si       0.40679388       3.41110971       0.29372672       0.00000000
Si       2.52613917       2.63085129      -0.31127083       0.00000000
Si      -3.18049218      -1.76683458       0.59879543       0.00000000
Si      -0.64298259      -1.62020014      -3.25477441       0.00000000
Si      -3.83246685       0.52869195       0.29975751       0.00000000
