10
Lattice="16.28999089631971 0.0 0.0 0.0 16.28999089631971 0.0 0.0 0.0 34.26581377546328" Properties=species:S:1:pos:R:3:initial_magmoms:R:1 pbc="T T T"
Si       0.76900203       1.70551413       1.48734758       0.00000000
Si       1.84140531      -1.63122521       0.07966806       0.00000000
Si      -1.91720268      -0.79357712       1.62091237       0.00000000
Si       0.28817010       1.05401187      -2.46121198       0.00000000
Si      -0.76724271      -2.17801226      -1.62615363       0.00000000
Si      -2.78731674      -1.59747070      -0.52745397       0.00000000
Si      -1.70021988       2.58686829      -1.90661948       0.00000000
Si       2.70430290       2.47640580       0.25898117       0.00000000
Si       2.02331574       0.49371732       3.04938984       0.00000000
Si      -0.69724458      -2.23156075       3.03603645       0.00000000
