10
Lattice="16.28999089631971 0.0 0.0 0.0 16.28999089631971 0.0 0.0 0.0 34.26581377546328" Properties=species:S:1:pos:R:3:initial_magmoms:R:1 pbc="T T T"
Si       1.64032155       0.88854782       1.55757198       0.00000000
Si      -1.84140531       1.63122521      -0.07966806       0.00000000
Si       1.36941885      -0.15304455      -2.10683474       0.00000000
Si      -1.09115307      -1.90006301       1.52243237       0.00000000
Si      -2.60864802      -0.54678704      -1.70582169       0.00000000
Si      -1.27537668      -2.55764144      -1.56139121       0.00000000
Si       2.67472026       2.38436078       0.11725768       0.00000000
Si       0.18191043       2.12494253       2.96972178       0.00000000
Si      -1.07240328       3.33673934       1.40767952       0.00000000
Si      -2.53864989      -0.60033553       2.95636838       0.00000000
