10
Lattice="16.28999089631971 0.0 0.0 0.0 16.28999089631971 0.0 0.0 0.0 34.26581377546328" Properties=species:S:1:pos:R:3:initial_magmoms:R:1 pbc="T T T"
Si       0.93284685      -2.09861301       0.35797516       0.00000000
Si       1.76810031       1.32302493      -0.81974152       0.00000000
Si      -1.67238190      -0.06973749      -1.75903653       0.00000000
Si      -0.60478254       0.97313202       2.17752515       0.00000000
Si       0.59150619       3.23279937      -0.02470567       0.00000000
Si      -1.81271536       3.05049798       0.00448882       0.00000000
Si      -0.96114258      -3.47459903       0.46556987       0.00000000
Si      -2.77250506       1.65050280       1.67467405       0.00000000
Si       3.58494030       0.83733858       0.68497400       0.00000000
Si       0.85665852       2.83216311       2.35258929       0.00000000
