10
Lattice="16.28999089631971 0.0 0.0 0.0 16.28999089631971 0.0 0.0 0.0 34.26581377546328" Properties=species:S:1:pos:R:3:initial_magmoms:R:1 pbc="T T T"
Si       0.22432959      -1.75337415      -1.45557832       0.00000000
Si       1.18843695       1.79678700      -0.86298500       0.00000000
Si       0.85550193      -0.81160038       2.09977598       0.00000000
Si      -2.18665557       0.78929937      -0.73520771       0.00000000
Si       0.17562249       3.54203244       0.32771843       0.00000000
Si      -0.93361248      -3.47956029      -0.33100795       0.00000000
Si      -2.09601801       2.97256662       0.18996978       0.00000000
Si      -0.98394858      -0.34606476       3.57341239       0.00000000
Si      -0.84501117      -1.05225255      -3.49761636       0.00000000
Si       0.71418618       1.93204287      -3.22797852       0.00000000
