10
Lattice="16.28999089631971 0.0 0.0 0.0 16.28999089631971 0.0 0.0 0.0 34.26581377546328" Properties=species:S:1:pos:R:3:initial_magmoms:R:1 pbc="T T T"
Si      -0.22369428       2.10686715       1.03503375       0.00000000
Si      -1.81100817      -1.46813625       0.40409697       0.00000000
Si      -0.06100605       0.24936732      -2.36982501       0.00000000
Si       2.19800970      -0.95356773      -0.21224257       0.00000000
Si       1.48318821      -2.73209364       1.23956651       0.00000000
Si       2.18307177      -0.37683657      -2.60557394       0.00000000
Si      -0.60812199      -3.51481674       0.55044634       0.00000000
Si      -0.90551223       2.48670108      -2.56808711       0.00000000
Si       2.13273567       2.75665896       1.29884640       0.00000000
Si      -1.79155791       3.24358335      -0.42496486       0.00000000
