10
Lattice="16.28999089631971 0.0 0.0 0.0 16.28999089631971 0.0 0.0 0.0 34.26581377546328" Properties=species:S:1:pos:R:3:initial_magmoms:R:1 pbc="T T T"
Si      -1.35505107       1.35677781      -1.35915426       0.00000000
Si       1.35783666       1.35687555       1.35768083       0.00000000
Si      -1.35703845      -1.35786924       1.35750950       0.00000000
Si       1.36016613      -1.36096434      -1.36364309       0.00000000
Si      -2.71358820      -0.00078192       2.71453928       0.00000000
Si       0.00079821       2.71402803       2.71440222       0.00000000
Si      -2.71598283       2.71326240      -0.00037692       0.00000000
Si       0.00022806      -2.71539639       2.71488194       0.00000000
Si      -2.71497285      -2.71555929      -0.00058252       0.00000000
Si       2.71575477      -0.00034209       2.71505327       0.00000000
