10
Lattice="16.28999089631971 0.0 0.0 0.0 16.28999089631971 0.0 0.0 0.0 34.26581377546328" Properties=species:S:1:pos:R:3:initial_magmoms:R:1 pbc="T T T"
Si       0.93856464       1.75215240      -1.32183877       0.00000000
Si      -1.17823941       1.37526696       1.56557164       0.00000000
Si      -1.79515800      -1.02442923      -1.23901825       0.00000000
Si       1.69987779      -1.84485879       0.41482217       0.00000000
Si       2.22446466       0.38237517      -2.70381408       0.00000000
Si      -0.48819501      -2.34401697      -2.68781193       0.00000000
Si       3.37593960      -0.95127084      -1.15842501       0.00000000
Si      -1.61062488      -0.19502388       3.39437341       0.00000000
Si       1.85619663      -1.38680028       3.09046974       0.00000000
Si       0.73392966      -3.63832263      -1.07019049       0.00000000
