10
Lattice="16.28999089631971 0.0 0.0 0.0 16.28999089631971 0.0 0.0 0.0 34.26581377546328" Properties=species:S:1:pos:R:3:initial_magmoms:R:1 pbc="T T T"
Si      -1.03588110      -0.16604104      -2.10344242       0.00000000
Si       0.95410530       2.15490473      -0.01185598       0.00000000
Si       1.77963363      -1.53669339      -0.58783036       0.00000000
Si      -1.14287545      -0.75044025       2.10594383       0.00000000
Si       0.27789111      -2.68950411       2.20675391       0.00000000
Si      -2.68963280      -1.68986826      -1.60532001       0.00000000
Si       3.10212099      -0.01767791      -1.82427868       0.00000000
Si       0.81580320       2.67872597       2.27097771       0.00000000
Si      -0.36752846       1.05283247       3.51925322       0.00000000
Si       3.25291752       1.79416268      -0.29204769       0.00000000
