10
Lattice="16.28999089631971 0.0 0.0 0.0 16.28999089631971 0.0 0.0 0.0 34.26581377546328" Properties=species:S:1:pos:R:3:initial_magmoms:R:1 pbc="T T T"
Si       0.68515740      -0.45651096      -2.18818182       0.00000000
Si       2.18149164      -0.00764001       0.95149365       0.00000000
Si      -0.70338591      -2.19602232       0.70344328       0.00000000
Si      -1.47005847       1.86685029       0.48318251       0.00000000
Si       0.94607433       0.70923402       2.80055239       0.00000000
Si       1.19858562      -3.38351445      -0.07733798       0.00000000
Si      -0.92422944       0.61639731      -3.42713155       0.00000000
Si       0.70965756      -2.78449857      -2.34100744       0.00000000
Si      -0.81643851       2.44683945       2.73711708       0.00000000
Si      -1.80063144      -1.96388982       2.76798991       0.00000000
