10
Lattice="16.28999089631971 0.0 0.0 0.0 16.28999089631971 0.0 0.0 0.0 34.26581377546328" Properties=species:S:1:pos:R:3:initial_magmoms:R:1 pbc="T T T"
Si      -1.23541731       0.71687403       1.84905874       0.00000000
Si      -2.18149164       0.00764001      -0.95149365       0.00000000
Si       1.01799468      -2.19875904      -0.36547937       0.00000000
Si       1.56022362       1.74270420      -0.75374553       0.00000000
Si      -1.49633424      -0.44887095      -3.13967547       0.00000000
Si       0.40767354       1.88833680       2.96675778       0.00000000
Si      -2.88487755      -2.18838231      -0.24805036       0.00000000
Si      -0.98290602      -3.37587444      -1.02883163       0.00000000
Si       0.44864289       2.63423961      -2.70662388       0.00000000
Si       1.68138864       3.19134132       1.35949692       0.00000000
