10
Lattice="16.28999089631971 0.0 0.0 0.0 16.28999089631971 0.0 0.0 0.0 34.26581377546328" Properties=species:S:1:pos:R:3:initial_magmoms:R:1 pbc="T T T"
Si      -0.65361996      -0.57998916      -2.25393457       0.00000000
Si      -2.07057303      -0.74376882       1.07829916       0.00000000
Si       0.51724008       1.45132497      -1.92703852       0.00000000
Si       1.76251284      -1.73760543       0.06343531       0.00000000
Si       0.70146369       2.10890340       1.15678505       0.00000000
Si       1.98175995       0.72161442       2.60099054       0.00000000
Si      -0.75365685      -1.99985814       2.60942336       0.00000000
Si       0.63698787      -3.34735065       1.28942466       0.00000000
Si       3.40560369      -0.56614266       1.18113435       0.00000000
Si       0.81643851      -2.44683945      -2.73711708       0.00000000
