10
Lattice="16.28999089631971 0.0 0.0 0.0 16.28999089631971 0.0 0.0 0.0 34.26581377546328" Properties=species:S:1:pos:R:3:initial_magmoms:R:1 pbc="T T T"
Si       1.28029626      -1.38728898       1.44420549       0.00000000
Si      -1.44749682       1.29972748       1.43393602       0.00000000
Si      -0.70146369      -2.10890340      -1.15678505       0.00000000
Si       1.09115307       1.90006301      -1.52243237       0.00000000
Si      -0.18422361      -0.65757843      -3.08382358       0.00000000
Si       2.70414000      -2.67504606       0.02434930       0.00000000
Si      -1.51749495       1.35327597      -3.22825406       0.00000000
Si      -2.66745492       2.73771110       0.01881194       0.00000000
Si       2.61894330      -0.04153950       2.80926375       0.00000000
Si      -0.08935065       2.67300071       2.81070292       0.00000000
