10
Lattice="16.28999089631971 0.0 0.0 0.0 16.28999089631971 0.0 0.0 0.0 34.26581377546328" Properties=species:S:1:pos:R:3:initial_magmoms:R:1 pbc="T T T"
Si      -2.16446859       0.53996463       0.68449428       0.00000000
Si       0.03978018       1.17126729      -2.02812612       0.00000000
Si      -0.12702942      -2.32665183      -0.51720848       0.00000000
Si       1.51049025       0.99430902       1.56656535       0.00000000
Si      -0.94552047      -0.56914002      -3.34588726       0.00000000
Si      -1.83238065       2.72888451       1.46503569       0.00000000
Si      -0.67285845      -1.07619885       3.39310557       0.00000000
Si       3.42733455      -0.31644954       1.15479284       0.00000000
Si       0.39478815      -2.40891633      -2.81452698       0.00000000
Si       1.48235742      -3.39956010       0.72174124       0.00000000
