10
Lattice="16.28999089631971 0.0 0.0 0.0 16.28999089631971 0.0 0.0 0.0 34.26581377546328" Properties=species:S:1:pos:R:3:initial_magmoms:R:1 pbc="T T T"
Si      -1.35703845       1.35514555       1.36066196       0.00000000
Si       1.35783611      -1.35959275       1.35959972       0.00000000
Si       1.35040720       1.35990223      -1.38356524       0.00000000
Si      -1.34381097      -1.36446084      -1.38859547       0.00000000
Si      -2.60359812       0.11324482      -2.77302763       0.00000000
Si      -2.71520091       2.71485556       0.00472868       0.00000000
Si       2.71892873       2.71234690      -0.00376924       0.00000000
Si       0.00166158       2.71408993       2.71779454       0.00000000
Si      -2.71384884      -0.00136347       2.71806867       0.00000000
Si      -2.71612944      -2.71690551       0.00109651       0.00000000
