10
Lattice="16.28999089631971 0.0 0.0 0.0 16.28999089631971 0.0 0.0 0.0 34.26581377546328" Properties=species:S:1:pos:R:3:initial_magmoms:R:1 pbc="T T T"
Si       1.35707103       1.35786924       1.35661859       0.00000000
Si      -1.35653020      -1.35799956       1.35706405       0.00000000
Si       1.35765747      -1.35707103      -1.35720111       0.00000000
Si      -1.35763629       1.35799956      -1.35685845       0.00000000
Si       0.00065160       2.71176372       2.71412809       0.00000000
Si       0.00197109      -2.71551042       2.71039312       0.00000000
Si       0.00014661       2.71521720      -2.71330571       0.00000000
Si       2.71422351       0.00057015      -2.71481341       0.00000000
Si       2.71477737      -2.71438641       0.00003427       0.00000000
Si      -2.71465958      -2.71453302       0.00047972       0.00000000
