10
Lattice="16.28999089631971 0.0 0.0 0.0 16.28999089631971 0.0 0.0 0.0 34.26581377546328" Properties=species:S:1:pos:R:3:initial_magmoms:R:1 pbc="T T T"
Si      -2.27069568       0.13123224      -0.42753480       0.00000000
Si       1.31963661      -1.73819187      -0.81096947       0.00000000
Si       0.92528829       2.14597944      -0.20590339       0.00000000
Si       0.00158013      -0.70297866       2.28964296       0.00000000
Si      -2.62078407       1.88714763       1.14793967       0.00000000
Si      -0.75119706       3.25493748       0.87384727       0.00000000
Si      -2.16670032       0.59794074      -2.69202663       0.00000000
Si      -1.61834634       0.83825082       3.01868282       0.00000000
Si      -0.51722379      -3.04167532       1.87471799       0.00000000
Si       3.47292116      -0.65137194      -0.89916972       0.00000000
