10
Lattice="16.28999089631971 0.0 0.0 0.0 16.28999089631971 0.0 0.0 0.0 34.26581377546328" Properties=species:S:1:pos:R:3:initial_magmoms:R:1 pbc="T T T"
Si      -1.03439871      -1.49581296       1.44031430       0.00000000
Si       1.54000773       1.18428300       1.36808535       0.00000000
Si       0.35030016      -0.72949878      -2.30437726       0.00000000
Si      -1.81182267       1.72327023       0.06205542       0.00000000
Si      -2.67472026      -2.38436078      -0.11725768       0.00000000
Si      -1.30530141      -2.53740533      -2.22409242       0.00000000
Si      -2.25421020       1.69784154      -2.31726122       0.00000000
Si       0.21336642       2.45980629       2.86080098       0.00000000
Si       2.47513518       2.87388180      -0.07212958       0.00000000
Si      -2.49280983      -0.25941825       2.85246410       0.00000000
