10
Lattice="16.28999089631971 0.0 0.0 0.0 16.28999089631971 0.0 0.0 0.0 34.26581377546328" Properties=species:S:1:pos:R:3:initial_magmoms:R:1 pbc="T T T"
Si       1.96434594       1.15471665       0.71817759       0.00000000
Si      -0.59701221       0.54854946      -2.31181295       0.00000000
Si       0.48733164      -2.03204718       1.31207301       0.00000000
Si      -2.11717872       0.39529314       1.29918906       0.00000000
Si       3.18459223      -0.04885371      -1.11833399       0.00000000
Si       2.42357733      -2.34939267      -1.28791560       0.00000000
Si      -2.31528141       2.76376140       1.05038484       0.00000000
Si       1.51060428       3.46118517       0.20864466       0.00000000
Si       0.13703148      -1.30254840       3.61645027       0.00000000
Si      -2.73893544      -0.34744941      -2.72437358       0.00000000
