10
Lattice="16.28999089631971 0.0 0.0 0.0 16.28999089631971 0.0 0.0 0.0 34.26581377546328" Properties=species:S:1:pos:R:3:initial_magmoms:R:1 pbc="T T T"
Si       1.34534223       1.36264221       1.38852693       0.00000000
Si      -1.37236734      -1.35573525       1.38198216       0.00000000
Si      -1.29031461       1.44176274      -1.39844347       0.00000000
Si       1.41947802      -1.41771870      -1.46027616       0.00000000
Si       2.68987615       2.70104490       0.00807646       0.00000000
Si       2.69571807      -2.71228500       0.03192205       0.00000000
Si      -2.71344159      -2.72999223       0.01017010       0.00000000
Si      -2.71415835       2.72951982       0.02141272       0.00000000
Si       2.69928006       0.00382815       2.74545392       0.00000000
Si      -0.01373247      -2.71275741       2.74607070       0.00000000
