10
Lattice="16.28999089631971 0.0 0.0 0.0 16.28999089631971 0.0 0.0 0.0 34.26581377546328" Properties=species:S:1:pos:R:3:initial_magmoms:R:1 pbc="T T T"
Si      -1.34822556      -1.34788347      -1.39622989       0.00000000
Si       1.36997271       1.36609569      -1.39605857       0.00000000
Si       1.40901513      -1.43031087       1.42302578       0.00000000
Si      -1.54697985       1.39087278       1.49830781       0.00000000
Si       2.65105156       0.10246410       2.73434494       0.00000000
Si      -2.70414000      -2.69607645       0.00253567       0.00000000
Si      -2.69845479       2.72451879      -0.04708125       0.00000000
Si       2.71096129       2.73639420      -0.02381475       0.00000000
Si       2.74096259      -2.71148679      -0.03601339       0.00000000
Si      -2.70091458       0.00739566      -2.75829675       0.00000000
