10
Lattice="16.28999089631971 0.0 0.0 0.0 16.28999089631971 0.0 0.0 0.0 34.26581377546328" Properties=species:S:1:pos:R:3:initial_magmoms:R:1 pbc="T T T"
Si      -1.35804843       1.35627282      -1.36199833       0.00000000
Si       1.35868767      -1.35993807      -1.36110742       0.00000000
Si       1.34098858       1.37029851       1.37224381       0.00000000
Si      -1.36997271      -1.36609569       1.39605857       0.00000000
Si       2.69300483      -0.01625742       2.66454543       0.00000000
Si      -2.71252935       2.71114470      -0.00561960       0.00000000
Si       2.71204784       2.71492398       0.00082238       0.00000000
Si       0.00042226       2.71303434      -2.71865118       0.00000000
Si      -2.71819827      -2.71397916      -0.00017133       0.00000000
Si      -2.71508688      -0.00143352      -2.71858265       0.00000000
