10
Lattice="16.28999089631971 0.0 0.0 0.0 16.28999089631971 0.0 0.0 0.0 34.26581377546328" Properties=species:S:1:pos:R:3:initial_magmoms:R:1 pbc="T T T"
Si       1.12664898       1.52946810       1.35867454       0.00000000
Si      -1.15147494       1.33364601      -1.54538906       0.00000000
Si      -1.67606181      -0.89358795       1.57324719       0.00000000
Si       1.54697985      -1.39087278      -1.49830781       0.00000000
Si      -2.43737496       2.70342324      -0.16341376       0.00000000
Si       2.65266360       0.11409516       2.52306181       0.00000000
Si      -3.37593960       0.95127084       1.15842501       0.00000000
Si      -2.64200994      -2.68705179       0.08823452       0.00000000
Si      -2.51478504      -0.02736720      -2.89799855       0.00000000
Si       2.80697877       2.67701715       0.00709303       0.00000000
