10
Lattice="16.28999089631971 0.0 0.0 0.0 16.28999089631971 0.0 0.0 0.0 34.26581377546328" Properties=species:S:1:pos:R:3:initial_magmoms:R:1 pbc="T T T"
Si       1.35123921      -1.29525048      -1.39348863       0.00000000
Si      -1.73014135      -0.87311142       1.34219268       0.00000000
Si       1.62173466       1.15196364       1.31217581       0.00000000
Si      -1.33608951       1.42231248      -1.37094171       0.00000000
Si       2.55063933      -2.59302591       0.09878840       0.00000000
Si      -2.59429441      -2.57064345      -0.06726383       0.00000000
Si      -2.66803696       2.70348840       0.08809746       0.00000000
Si      -3.44614040       0.80699031       1.40973063       0.00000000
Si       0.01029528      -2.64806982      -2.73962187       0.00000000
Si      -2.70685133       0.06739173      -2.73424214       0.00000000
