10
Lattice="16.28999089631971 0.0 0.0 0.0 16.28999089631971 0.0 0.0 0.0 34.26581377546328" Properties=species:S:1:pos:R:3:initial_magmoms:R:1 pbc="T T T"
Si       1.83620880      -0.94328874      -1.18429572       0.00000000
Si      -1.11158073       0.89153541      -1.95287835       0.00000000
Si      -1.56022362      -1.74270420       0.75374553       0.00000000
Si       0.12116502       1.44863712       2.11324245       0.00000000
Si       0.16597881       2.80101663       0.22269365       0.00000000
Si       3.23012196       0.91862568      -0.74630984       0.00000000
Si       1.85261283       2.69842221      -1.37765781       0.00000000
Si       0.90305244      -1.56861297      -3.26782969       0.00000000
Si      -1.34631963      -0.90943812      -3.43456723       0.00000000
Si      -1.15255008       0.14563260       3.72050331       0.00000000
