10
Lattice="16.28999089631971 0.0 0.0 0.0 16.28999089631971 0.0 0.0 0.0 34.26581377546328" Properties=species:S:1:pos:R:3:initial_magmoms:R:1 pbc="T T T"
Si       1.26135099      -1.37919285      -1.38845155       0.00000000
Si       2.02799097       0.78576185       1.01707845       0.00000000
Si      -1.60296858      -1.12262535       1.41452785       0.00000000
Si      -1.45324719       1.36531933      -1.37484801       0.00000000
Si       2.50072677      -2.72538216       0.15961025       0.00000000
Si       2.60899047       0.00261556      -2.74578972       0.00000000
Si      -3.41752797       0.79865213       1.51811346       0.00000000
Si      -2.74362696      -2.69897607      -0.01089653       0.00000000
Si      -0.10668321       2.71612034      -2.74692050       0.00000000
Si      -0.10182879      -2.71603170      -2.74746875       0.00000000
