10
Lattice="16.28999089631971 0.0 0.0 0.0 16.28999089631971 0.0 0.0 0.0 34.26581377546328" Properties=species:S:1:pos:R:3:initial_magmoms:R:1 pbc="T T T"
Si      -1.21629285       0.90761431       1.75694632       0.00000000
Si       2.21645228      -0.82922616      -0.10351708       0.00000000
Si       0.62056755       2.21109776      -0.92874114       0.00000000
Si      -1.62181611      -1.80955836      -0.88820466       0.00000000
Si       0.55293147       1.27887644      -3.00511355       0.00000000
Si       2.21960439      -0.47614041      -2.61276976       0.00000000
Si      -0.93211380      -0.72619191       3.39176921       0.00000000
Si      -3.57083316       0.77724381       1.16126908       0.00000000
Si       2.14803917      -3.23077941       0.02727560       0.00000000
Si      -0.69748893       3.24631097       2.17187129       0.00000000
