10
Lattice="16.28999089631971 0.0 0.0 0.0 16.28999089631971 0.0 0.0 0.0 34.26581377546328" Properties=species:S:1:pos:R:3:initial_magmoms:R:1 pbc="T T T"
Si       0.04481379       1.35237951      -1.89054880       0.00000000
Si       1.39377240       1.27816227       1.49408082       0.00000000
Si      -1.27371510      -1.30300452       1.60726086       0.00000000
Si      -0.12116502      -1.44863712      -2.11324245       0.00000000
Si      -1.68138864      -3.19134132      -1.35949692       0.00000000
Si      -2.91680595      -2.47446729       0.48956182       0.00000000
Si       3.27820516       2.18921310       0.22036357       0.00000000
Si       0.01340667       2.68294671       3.00248334       0.00000000
Si      -1.51728318       3.11906000      -2.04635554       0.00000000
Si       2.70647566      -0.04372236       3.01378079       0.00000000
