10
Lattice="16.28999089631971 0.0 0.0 0.0 16.28999089631971 0.0 0.0 0.0 34.26581377546328" Properties=species:S:1:pos:R:3:initial_magmoms:R:1 pbc="T T T"
Si       0.13766679       1.03873185      -2.07671507       0.00000000
Si      -1.61786904      -1.68402762       0.12075280       0.00000000
Si       2.09168487      -0.94943007       0.44538730       0.00000000
Si      -0.56534445       1.94908221       1.25560292       0.00000000
Si       3.14818911       1.07678529       0.98168185       0.00000000
Si      -3.04977212      -0.60372369       1.69787202       0.00000000
Si      -2.11307527       1.58876370      -2.38716352       0.00000000
Si       1.54893465       2.33017047       2.22652529       0.00000000
Si       2.91978702      -2.08024929      -1.50122041       0.00000000
Si      -2.53760554       1.56559932       2.51398136       0.00000000
