10
Lattice="16.28999089631971 0.0 0.0 0.0 16.28999089631971 0.0 0.0 0.0 34.26581377546328" Properties=species:S:1:pos:R:3:initial_magmoms:R:1 pbc="T T T"
Si       2.16772252      -0.67737078       0.50285110       0.00000000
Si       0.95978970       1.39999518      -1.67018523       0.00000000
Si      -0.76101490      -2.30053896      -0.16958161       0.00000000
Si      -1.22024629       1.20357036       1.83651158       0.00000000
Si      -0.25802857       0.17410752      -3.21632814       0.00000000
Si      -3.18459223       0.04885371       1.11833399       0.00000000
Si       2.77250506      -1.65050280      -1.67467405       0.00000000
Si      -2.45908450      -0.60870843      -2.77464156       0.00000000
Si       3.62916358       1.18166031       0.67791524       0.00000000
Si       1.10012316      -1.72024029      -3.43371059       0.00000000
