10
Lattice="16.28999089631971 0.0 0.0 0.0 16.28999089631971 0.0 0.0 0.0 34.26581377546328" Properties=species:S:1:pos:R:3:initial_magmoms:R:1 pbc="T T T"
Si       1.35663446       1.35783666      -1.35768083       0.00000000
Si      -1.35834791      -1.35726651      -1.35805776       0.00000000
Si       1.35736751      -1.36075257       1.35620740       0.00000000
Si      -1.35868767       1.35993807       1.36110742       0.00000000
Si       2.70238394       0.01220121       2.70330009       0.00000000
Si       2.71378694      -2.71464705      -0.00130210       0.00000000
Si       2.71391726       2.71480995       0.00061678       0.00000000
Si       2.71434080       0.00009774      -2.71467635       0.00000000
Si      -0.00092038      -2.71451673      -2.71477915       0.00000000
Si      -2.71597047      -2.71437012       0.00027413       0.00000000
