10
Lattice="16.28999089631971 0.0 0.0 0.0 16.28999089631971 0.0 0.0 0.0 34.26581377546328" Properties=species:S:1:pos:R:3:initial_magmoms:R:1 pbc="T T T"
Si      -1.24203643      -1.53277497      -1.31131916       0.00000000
Si       1.41192598       1.24737417      -1.46585807       0.00000000
Si      -1.54536781       1.40250384       1.28702468       0.00000000
Si       1.31850283      -1.64408454       1.48223713       0.00000000
Si      -2.11483363      -0.40250961       2.75469884       0.00000000
Si       1.89319774       2.28623634       2.01791490       0.00000000
Si      -0.57526832      -2.23024761       2.82586898       0.00000000
Si       2.39776420       0.06641433       2.81404726       0.00000000
Si       2.80405309       2.48427387      -0.10646394       0.00000000
Si      -2.65105156      -0.10246410      -2.73434494       0.00000000
