10
Lattice="16.28999089631971 0.0 0.0 0.0 16.28999089631971 0.0 0.0 0.0 34.26581377546328" Properties=species:S:1:pos:R:3:initial_magmoms:R:1 pbc="T T T"
Si       1.39212711       1.23689970       1.35939412       0.00000000
Si       1.36806678      -1.33147944      -1.32235276       0.00000000
Si      -1.35201624       1.38655593      -1.29230162       0.00000000
Si      -1.41192598      -1.24737417       1.46585807       0.00000000
Si       0.48127176       1.03886217       3.48377297       0.00000000
Si      -2.69300483       0.01625742      -2.66454543       0.00000000
Si       0.02305035      -2.70443322      -2.66944545       0.00000000
Si       0.01904301       2.73118140      -2.66372305       0.00000000
Si       2.73364119      -2.67046857       0.02683015       0.00000000
Si       2.73890286       0.01479132      -2.66653285       0.00000000
