10
Lattice="16.28999089631971 0.0 0.0 0.0 16.28999089631971 0.0 0.0 0.0 34.26581377546328" Properties=species:S:1:pos:R:3:initial_magmoms:R:1 pbc="T T T"
Si       1.34063442       1.35967141      -1.38348300       0.00000000
Si      -1.37782449      -1.35148356      -1.38372287       0.00000000
Si      -1.31364189       1.39600659       1.44067268       0.00000000
Si       1.42934976      -1.33815834       1.53349882       0.00000000
Si       2.70172908      -2.71163340       0.00161049       0.00000000
Si      -2.70483070       2.71680289      -0.02957141       0.00000000
Si       2.69869914       2.72486155       0.01336367       0.00000000
Si       2.69804754       0.00345348      -2.74630371       0.00000000
Si      -2.74888374      -2.69610903      -0.01230143       0.00000000
Si      -0.01726740      -2.71153566      -2.74503588       0.00000000
