10
Lattice="16.28999089631971 0.0 0.0 0.0 16.28999089631971 0.0 0.0 0.0 34.26581377546328" Properties=species:S:1:pos:R:3:initial_magmoms:R:1 pbc="T T T"
Si       1.35681039       1.35646914      -1.35781790       0.00000000
Si       1.35330804      -1.35653346       1.36192980       0.00000000
Si      -1.35831754      -1.35842310      -1.35754377       0.00000000
Si      -1.36044989       1.35833452       1.35716684       0.00000000
Si      -2.70808937      -0.02347389       2.71450502       0.00000000
Si      -0.00039422       2.71314252      -2.71481341       0.00000000
Si       0.02630183       2.71175299       2.71608125       0.00000000
Si       2.71365336      -0.00061902      -2.71512180       0.00000000
Si      -2.71597373      -0.00087966      -2.71443649       0.00000000
Si       2.71386513      -2.71658556       0.00061678       0.00000000
