10
Lattice="16.290000149 0.0 0.0 0.0 16.290000149 0.0 0.0 0.0 29.1751946751" Properties=species:S:1:pos:R:3:initial_magmoms:R:1 pbc="T T T"
Si      -0.43911324       0.24762429      -2.28329508       0.00000000
Si       0.80938495       1.85961755       1.18109299       0.00000000
Si      -1.87411565      -0.80200558       1.19590232       0.00000000
Si       1.63321912      -1.73534114       0.08402106       0.00000000
Si       2.18455418       0.59538322       2.59837726       0.00000000
Si      -0.67127833      -2.19916631       2.63726780       0.00000000
Si      -2.15689376       1.87950764      -2.17943139       0.00000000
Si      -0.48757599      -2.04695255      -2.94927725       0.00000000
Si       1.71637958      -2.42800823      -2.14558816       0.00000000
Si       0.64423693      -3.52222709       1.23672717       0.00000000
