10
Lattice="16.290000149 0.0 0.0 0.0 16.290000149 0.0 0.0 0.0 29.1751946751" Properties=species:S:1:pos:R:3:initial_magmoms:R:1 pbc="T T T"
Si       1.01555119       1.12014928      -0.20329276       0.00000000
H        1.24436477      -0.67476439      -1.75062838       0.00000000
H       -0.51745185       1.47753559       1.81037918       0.00000000
Si      -1.00022230       0.18987624       2.44178874       0.00000000
Si      -2.28032309      -0.86951134      -1.18314167       0.00000000
Si       0.99877249      -1.18798084       2.35977727       0.00000000
Si      -0.23771997      -2.77620699       0.95011939       0.00000000
Si       2.16045801       0.87992065       1.80962062       0.00000000
Si      -0.27912915       2.68485266      -1.40676954       0.00000000
Si      -0.67826674      -2.62080038      -1.40837417       0.00000000
