10
Lattice="16.290000149 0.0 0.0 0.0 16.290000149 0.0 0.0 0.0 29.1751946751" Properties=species:S:1:pos:R:3:initial_magmoms:R:1 pbc="T T T"
Si      -2.30712014      -0.08931155       0.35902995       0.00000000
H       -0.90091846       1.55168767      -1.50710303       0.00000000
Si       0.97235011      -0.40520724      -2.15275009       0.00000000
Si       1.02224638       2.14884650       0.39094761       0.00000000
Si       0.05781321      -2.06195564       1.29161504       0.00000000
H       -2.91670824       1.21854088      -0.08262415       0.00000000
Si       2.83941219       1.26143245       1.54094626       0.00000000
Si       2.88971571      -1.46525293      -1.37359734       0.00000000
Si       3.52908192      -0.78694221       0.77255915       0.00000000
Si      -3.15610608      -1.74915506      -1.03703229       0.00000000
