10
Lattice="16.290000149 0.0 0.0 0.0 16.290000149 0.0 0.0 0.0 29.1751946751" Properties=species:S:1:pos:R:3:initial_magmoms:R:1 pbc="T T T"
Si      -1.49929903      -1.36088290       1.16409027       0.00000000
Si       1.33626871       1.28451538       1.42961371       0.00000000
Si       1.39616704      -1.35291709      -1.30941191       0.00000000
Si      -1.34084620       1.34757397      -1.38083279       0.00000000
H       -0.85576258      -2.20297817       2.24441855       0.00000000
Si       2.66892104       2.67491576       0.05674575       0.00000000
Si      -0.00374670      -2.72375318      -2.62264578       0.00000000
Si      -2.93057103      -0.13662423       2.45182501       0.00000000
Si       2.74797642      -2.66747123       0.11460016       0.00000000
Si       2.73724130      -0.00475668      -2.68172554       0.00000000
