10
Lattice="16.290000149 0.0 0.0 0.0 16.290000149 0.0 0.0 0.0 29.1751946751" Properties=species:S:1:pos:R:3:initial_magmoms:R:1 pbc="T T T"
Si      -0.93170330       0.81493821       1.99532074       0.00000000
Si       1.36618041       1.38217230      -1.33353980       0.00000000
Si      -1.86907878      -0.89939046      -1.12175706       0.00000000
Si       1.84057779      -1.17394049       0.93392716       0.00000000
H        2.64761698       1.41947640      -0.51403776       0.00000000
H       -2.91585790       0.21371014      -1.09943804       0.00000000
Si       0.52401347      -2.60112369       2.27986641       0.00000000
Si       1.96467502      -0.13470364      -3.09335837       0.00000000
Si       0.40114451       2.79260939       2.48362597       0.00000000
Si      -0.64646393      -1.00993456       3.56587982       0.00000000
