10
Lattice="16.290000149 0.0 0.0 0.0 16.290000149 0.0 0.0 0.0 29.1751946751" Properties=species:S:1:pos:R:3:initial_magmoms:R:1 pbc="T T T"
Si      -1.30280905       1.38479662      -1.37175930       0.00000000
Si       1.37649198       1.36192546       1.33502773       0.00000000
Si       1.39966288      -1.33395390      -1.34704791       0.00000000
Si      -1.38152233      -1.33523593       1.38427546       0.00000000
Si       0.08900630      -2.62680748       2.65584715       0.00000000
Si      -2.67555107       0.00096111      -2.68108369       0.00000000
Si      -2.62487288       2.75512773       0.00326762       0.00000000
Si       0.02840976      -2.70446582      -2.67711586       0.00000000
Si      -2.61413777       0.09241317       2.79959333       0.00000000
Si       2.72908001       0.03135825       2.71253455       0.00000000
