10
Lattice="16.290000149 0.0 0.0 0.0 16.290000149 0.0 0.0 0.0 29.1751946751" Properties=species:S:1:pos:R:3:initial_magmoms:R:1 pbc="T T T"
Si      -2.24666795       0.50412663      -0.27427601       0.00000000
Si       0.93170330      -0.81493821      -1.99532074       0.00000000
Si       0.28523937      -1.82487277       1.57055908       0.00000000
Si       1.33284781       1.97767118       0.48830523       0.00000000
Si       2.96748417       0.79496830       1.70033706       0.00000000
Si       1.63152008      -0.61163575       3.05257144       0.00000000
Si       2.77228110      -1.98887870      -1.06139358       0.00000000
Si      -0.93737548      -1.71432866      -3.11707780       0.00000000
Si      -2.97644367       1.14026743       1.90355279       0.00000000
Si       1.45571677      -3.41606190       0.28454567       0.00000000
