10
Lattice="16.290000149 0.0 0.0 0.0 16.290000149 0.0 0.0 0.0 29.1751946751" Properties=species:S:1:pos:R:3:initial_magmoms:R:1 pbc="T T T"
Si      -1.36850662      -1.34939845      -1.33736175       0.00000000
Si      -1.36528120       1.34664544       1.35066564       0.00000000
Si       1.32558247      -1.38308617       1.35956407       0.00000000
Si       1.38531855       1.33123510      -1.36747055       0.00000000
Si       0.07431498      -2.68100822      -2.61996166       0.00000000
Si       2.69518378      -0.01459584       2.68557667       0.00000000
Si      -0.00630423       2.71181261       2.68178389       0.00000000
Si      -2.69459408       2.71326242      -0.02509067       0.00000000
Si       0.05527197       2.74001060      -2.67828287       0.00000000
Si      -2.72166806      -0.03176550       2.70521158       0.00000000
