10
Lattice="16.290000149 0.0 0.0 0.0 16.290000149 0.0 0.0 0.0 29.1751946751" Properties=species:S:1:pos:R:3:initial_magmoms:R:1 pbc="T T T"
Si      -1.39020490      -1.34506531      -1.27526818       0.00000000
Si       1.33004658      -1.40877550       1.31081232       0.00000000
Si      -1.42500034       1.36008469       1.27040468       0.00000000
Si       1.29531565       1.31417947      -1.46940284       0.00000000
Si       2.62634876       2.67437819      -0.09088073       0.00000000
Si       2.66491859      -0.03217275       2.65631395       0.00000000
Si      -0.06864606       2.70966233       2.62492144       0.00000000
Si      -0.13227480      -2.74576098      -2.64004003       0.00000000
Si      -2.74986606      -0.02674818       2.65319220       0.00000000
Si       2.68037129      -2.73574262      -0.09557794       0.00000000
