10
Lattice="16.290000149 0.0 0.0 0.0 16.290000149 0.0 0.0 0.0 29.1751946751" Properties=species:S:1:pos:R:3:initial_magmoms:R:1 pbc="T T T"
Si       1.71778052      -1.63188335      -0.10386369       0.00000000
Si      -2.05793201      -1.01051758      -0.71698041       0.00000000
Si       1.39509190       1.73910413      -0.91265844       0.00000000
Si      -1.00869310       1.24012513       1.84171334       0.00000000
H        0.80078383      -1.46771272      -2.64260161       0.00000000
H       -0.62403733       0.56462770      -3.07375263       0.00000000
Si      -2.36541065       2.64606617       0.52483258       0.00000000
Si       2.15689376      -1.87950764       2.17943139       0.00000000
Si      -3.47406408       0.93652840      -0.72255287       0.00000000
Si       3.58743270      -0.73523287      -1.38077444       0.00000000
