10
Lattice="16.290000149 0.0 0.0 0.0 16.290000149 0.0 0.0 0.0 29.1751946751" Properties=species:S:1:pos:R:3:initial_magmoms:R:1 pbc="T T T"
Si       1.31185000      -1.42809544       1.29546617       0.00000000
Si      -1.35037585      -1.38668626      -1.32318260       0.00000000
Si       1.37586970       1.32988303      -1.35580047       0.00000000
Si      -1.30005604       1.35749458       1.41736013       0.00000000
Si       2.66520692      -0.08537589       2.60487808       0.00000000
Si      -2.66849099       2.70055622       0.05861297       0.00000000
Si       0.01001835       2.68695407      -2.68484729       0.00000000
Si      -2.68917603      -0.02788848      -2.68683120       0.00000000
Si      -2.63266113      -0.04069242       2.75816455       0.00000000
Si       0.03782538      -2.73769743      -2.65686828       0.00000000
