10
Lattice="16.290000149 0.0 0.0 0.0 16.290000149 0.0 0.0 0.0 29.1751946751" Properties=species:S:1:pos:R:3:initial_magmoms:R:1 pbc="T T T"
Si       1.35330805       1.39771459      -1.32009587       0.00000000
Si      -1.35164647       1.36930483       1.35874717       0.00000000
Si       1.37643985      -1.34719930       1.35927232       0.00000000
Si      -1.36216981      -1.36792018      -1.36341520       0.00000000
Si       2.73538424       0.04131144      -2.64445132       0.00000000
Si      -2.70833307      -2.69666291       0.01785522       0.00000000
Si       2.69030981       2.72256401       0.08463724       0.00000000
Si       0.02037879      -2.69099399       2.73435760       0.00000000
Si      -2.69830495       0.02156796       2.72715132       0.00000000
Si      -2.71754995       2.71691138      -0.01336224       0.00000000
