10
Lattice="16.290000149 0.0 0.0 0.0 16.290000149 0.0 0.0 0.0 29.1751946751" Properties=species:S:1:pos:R:3:initial_magmoms:R:1 pbc="T T T"
H       -0.65612863      -0.82073908       1.07560190       0.00000000
Si       1.23474943      -1.36660069      -1.42159054       0.00000000
Si      -1.58068387       1.08519094      -1.32093611       0.00000000
Si       1.27624006       1.46075689       1.30074688       0.00000000
H       -2.06708699      -1.74166166       0.50916550       0.00000000
Si      -3.18130671       1.00642879       0.47193795       0.00000000
H       -1.28757790      -2.47404377       2.18644744       0.00000000
Si       2.50445720      -0.03029940       2.66760475       0.00000000
Si      -0.28279440       2.67268403      -2.59878047       0.00000000
Si       2.55599876      -2.74483245      -0.08682538       0.00000000
