10
Lattice="16.290000149 0.0 0.0 0.0 16.290000149 0.0 0.0 0.0 29.1751946751" Properties=species:S:1:pos:R:3:initial_magmoms:R:1 pbc="T T T"
Si      -1.32726034       1.35871633       1.36636189       0.00000000
Si       1.37740096      -1.33983622       1.35865964       0.00000000
Si       1.41097465       1.40450752      -1.25752966       0.00000000
Si      -1.41967351      -1.42923574      -1.23541778       0.00000000
Si       0.07817571      -2.66515643      -2.51499514       0.00000000
Si       2.66890475       0.00381186      -2.62230151       0.00000000
Si      -2.66890475      -0.05872545      -2.64865254       0.00000000
Si       0.05131350       2.72282465       2.67093072       0.00000000
Si      -2.64407879       2.75030589       0.02468221       0.00000000
Si       0.09655083       2.66820428      -2.73078947       0.00000000
