10
Lattice="16.290000149 0.0 0.0 0.0 16.290000149 0.0 0.0 0.0 29.1751946751" Properties=species:S:1:pos:R:3:initial_magmoms:R:1 pbc="T T T"
Si       1.33103311       1.36019872       1.37852211       0.00000000
Si      -1.29531565      -1.31417947       1.46940284       0.00000000
Si      -1.38751705       1.36003582      -1.35694706       0.00000000
Si       1.40023954      -1.34951248      -1.36907810       0.00000000
Si      -0.10728594      -2.73378783      -2.53647129       0.00000000
Si       0.07191041       2.53785170      -2.77439180       0.00000000
Si      -2.68552055      -2.65924478       0.19413466       0.00000000
Si       2.67719636       2.68894145      -0.00274830       0.00000000
Si       2.70005123       0.01117494       2.74196649       0.00000000
Si       2.75908620      -2.68889258       0.01207270       0.00000000
