10
Lattice="16.290000149 0.0 0.0 0.0 16.290000149 0.0 0.0 0.0 29.1751946751" Properties=species:S:1:pos:R:3:initial_magmoms:R:1 pbc="T T T"
Si       1.32023935       1.34091136       1.39442843       0.00000000
Si      -1.35884665       1.33938010      -1.38115080       0.00000000
Si       1.41947803      -1.38205990      -1.28336138       0.00000000
Si      -1.37403056      -1.36102951       1.36175221       0.00000000
Si       0.03173292      -2.65709450      -2.66039177       0.00000000
Si       2.67573026       2.65546550      -0.00511149       0.00000000
Si       0.12800682       2.53957844      -2.81698175       0.00000000
Si       2.62231535      -2.77922064       0.15800410       0.00000000
Si       2.67271661      -0.02648754       2.75072488       0.00000000
Si      -2.86637214      -0.04489524      -2.54854399       0.00000000
