10
Lattice="16.290000149 0.0 0.0 0.0 16.290000149 0.0 0.0 0.0 29.1751946751" Properties=species:S:1:pos:R:3:initial_magmoms:R:1 pbc="T T T"
H       -0.06775011      -1.08556561      -1.05191164       0.00000000
Si       2.19994823       0.18582003       0.65457467       0.00000000
Si      -1.62502525      -0.67429198       1.55708014       0.00000000
Si      -0.45838431       2.12822336      -0.90472279       0.00000000
H       -1.89543926       2.43141284      -0.44066214       0.00000000
H        1.06563805       0.69454045      -2.99486291       0.00000000
Si      -3.15617124      -1.39305565      -0.05846709       0.00000000
H       -1.28669824      -3.24107146       0.66554454       0.00000000
Si       2.99534007      -2.07260930       0.43144278       0.00000000
Si       3.51142356      -0.07649784      -1.25832615       0.00000000
