10
Lattice="16.290000149 0.0 0.0 0.0 16.290000149 0.0 0.0 0.0 29.1751946751" Properties=species:S:1:pos:R:3:initial_magmoms:R:1 pbc="T T T"
Si       1.43705494      -0.30318948      -0.46406065       0.00000000
Si      -1.97231177       0.09008370       1.03679889       0.00000000
Si      -1.20223459       1.96180472      -0.25268636       0.00000000
Si       0.67455262       2.66289374       1.02760871       0.00000000
Si       0.99650818      -0.14778288      -2.82255421       0.00000000
Si      -0.95620672      -1.25006203       2.65716003       0.00000000
Si      -0.60554818       1.60350616      -2.59732171       0.00000000
Si       2.67354740       1.28503666       0.94559723       0.00000000
Si       1.89543926      -2.43141284       0.44066214       0.00000000
H        1.67477492       2.47301750      -1.41418004       0.00000000
