10
Lattice="16.290000149 0.0 0.0 0.0 16.290000149 0.0 0.0 0.0 29.1751946751" Properties=species:S:1:pos:R:3:initial_magmoms:R:1 pbc="T T T"
Si      -1.35536059      -1.35475786       1.33397743       0.00000000
Si      -1.37446876       1.34618118      -1.33654484       0.00000000
Si       1.30629511       1.31512755       1.44566007       0.00000000
Si       1.35203743      -1.38416131      -1.33905391       0.00000000
Si       0.03982905      -2.80448643       2.52779722       0.00000000
Si       2.67307499       2.67331934       0.06777398       0.00000000
Si      -0.01019754       2.69275331      -2.68767728       0.00000000
Si       2.71290404      -0.02148651      -2.68073359       0.00000000
Si      -2.72417672      -0.02371824      -2.68791069       0.00000000
Si      -2.72453510       2.69588099       0.03652734       0.00000000
