10
Lattice="16.290000149 0.0 0.0 0.0 16.290000149 0.0 0.0 0.0 29.1751946751" Properties=species:S:1:pos:R:3:initial_magmoms:R:1 pbc="T T T"
Si       1.35969373       1.35469270       1.35305800       0.00000000
Si      -1.33044830      -1.35752716       1.38375031       0.00000000
Si       1.37927431      -1.35915616      -1.33546536       0.00000000
Si      -1.36901813       1.34902378      -1.36344437       0.00000000
Si      -2.66532030      -2.73412992       0.03824868       0.00000000
Si      -0.00817758       2.70816365       2.70567838       0.00000000
Si       2.71575479       2.69848739      -0.02202727       0.00000000
Si      -0.02285487       2.67776651      -2.74471479       0.00000000
Si       2.70710480      -0.00659745       2.71799031       0.00000000
Si      -2.71863812       0.00353493       2.70684539       0.00000000
