10
Lattice="16.290000149 0.0 0.0 0.0 16.290000149 0.0 0.0 0.0 29.1751946751" Properties=species:S:1:pos:R:3:initial_magmoms:R:1 pbc="T T T"
Si       2.22931910      -0.51186438       0.32434064       0.00000000
Si      -1.05336028       0.66711949       2.06892976       0.00000000
Si      -0.05781321       2.06195564      -1.29161504       0.00000000
Si      -0.64602883      -1.76109563      -1.58993141       0.00000000
Si      -2.36493335       1.97264408      -0.93258510       0.00000000
H       -0.65656846      -2.90965467       1.53782451       0.00000000
Si       2.78449860      -1.54916272      -1.68533430       0.00000000
Si      -3.12176676       1.38893428       1.22127365       0.00000000
Si       3.47126871       1.27501342      -0.51905589       0.00000000
Si       1.16098831      -3.23648094      -1.75497549       0.00000000
