10
Lattice="16.290000149 0.0 0.0 0.0 16.290000149 0.0 0.0 0.0 29.1751946751" Properties=species:S:1:pos:R:3:initial_magmoms:R:1 pbc="T T T"
Si      -1.35586558      -1.34022718       1.31527613       0.00000000
Si      -1.40623426       1.36391284      -1.25401405       0.00000000
Si       1.33820722      -1.15395103      -1.55670086       0.00000000
Si       1.42200298       1.45984465       1.22477467       0.00000000
Si       0.42603237       2.38586600      -2.19635534       0.00000000
Si       2.17181540       0.84362653      -2.64819858       0.00000000
Si       0.07739379      -2.65994525       2.59796356       0.00000000
Si      -2.69205284       0.10117719       2.60400283       0.00000000
Si      -2.66038508      -2.63536364      -0.16034979       0.00000000
Si       2.76561849      -2.52126848      -0.22288098       0.00000000
