10
Lattice="16.290000149 0.0 0.0 0.0 16.290000149 0.0 0.0 0.0 29.1751946751" Properties=species:S:1:pos:R:3:initial_magmoms:R:1 pbc="T T T"
Si      -0.47762280       2.03062997      -1.05733823       0.00000000
Si       1.59356926       0.81332713       1.56145642       0.00000000
Si       1.29813382      -1.49957596      -1.32184055       0.00000000
Si      -1.86965219      -0.89665048       1.27691075       0.00000000
H       -2.78664888      -0.73247986      -1.26182717       0.00000000
H        1.03534354       1.18027567      -2.76531248       0.00000000
H       -1.07678530       1.93640861      -2.45710572       0.00000000
Si      -2.19234080       2.47433699       0.46811600       0.00000000
Si       2.22448097      -2.54426996       0.51225807       0.00000000
Si       3.29486430      -0.78398884       1.57656917       0.00000000
