10
Lattice="16.290000149 0.0 0.0 0.0 16.290000149 0.0 0.0 0.0 29.1751946751" Properties=species:S:1:pos:R:3:initial_magmoms:R:1 pbc="T T T"
Si       1.41612229       1.32553360      -1.23895382       0.00000000
Si      -1.42348537      -1.38991168      -1.18209136       0.00000000
Si       1.29769399      -1.29482695       1.42348692       0.00000000
Si      -1.08194923       1.42021108       1.49861305       0.00000000
H        2.15920694      -0.36176832       2.21641036       0.00000000
Si      -0.53349750      -2.11677149       2.59174924       0.00000000
Si       1.04498722       2.38632212       2.17918282       0.00000000
Si      -2.13571676      -0.34106373       2.68023761       0.00000000
Si       2.64561005       2.46508427       0.38630875       0.00000000
Si       0.00351864      -2.71179632      -2.47058466       0.00000000
