10
Lattice="16.290000149 0.0 0.0 0.0 16.290000149 0.0 0.0 0.0 29.1751946751" Properties=species:S:1:pos:R:3:initial_magmoms:R:1 pbc="T T T"
Si      -1.37676728       1.22740264      -1.44566007       0.00000000
Si      -1.34158577      -1.44011746       1.30736965       0.00000000
Si       1.19452942      -1.41187060      -1.47439764       0.00000000
Si       1.44663346       1.39701412       1.30766140       0.00000000
Si      -0.02186118       2.80285743       2.50550737       0.00000000
Si       2.54808182      -2.77037517      -0.16921613       0.00000000
Si      -2.78236461       2.54526365      -0.13534373       0.00000000
Si       0.06418260      -2.66279600       2.70351941       0.00000000
Si       2.74163961       2.63539622      -0.18975547       0.00000000
Si      -0.04416219       2.62558964      -2.78646449       0.00000000
