10
Lattice="16.290000149 0.0 0.0 0.0 16.290000149 0.0 0.0 0.0 29.1751946751" Properties=species:S:1:pos:R:3:initial_magmoms:R:1 pbc="T T T"
H       -1.14258061       0.05066190       0.99396971       0.00000000
Si       0.23506470      -2.13291488      -0.91096628       0.00000000
Si       2.06224886       0.69519205       0.90562722       0.00000000
Si      -0.22444362       1.51469308      -1.83684108       0.00000000
H       -0.45493083       0.98432326       2.62320010       0.00000000
H       -2.04200039       1.84151936       1.45595892       0.00000000
Si       2.35636481      -1.54396621      -1.91319257       0.00000000
H        2.44503128      -2.36737685       0.67085443       0.00000000
Si       3.32226408       0.45186831      -1.03367715       0.00000000
Si       1.72967222       2.81812116       1.83599500       0.00000000
