10
Lattice="16.290000149 0.0 0.0 0.0 16.290000149 0.0 0.0 0.0 29.1751946751" Properties=species:S:1:pos:R:3:initial_magmoms:R:1 pbc="T T T"
Si       2.24666795      -0.50412663       0.27427601       0.00000000
Si      -1.57338595      -1.68622841      -0.44556357       0.00000000
Si      -0.72977572       0.63614080       2.17782880       0.00000000
Si      -0.07581366       1.46142478      -1.92894717       0.00000000
H        0.26251335      -1.10535470      -2.82048277       0.00000000
Si      -2.82620100      -0.57909322      -2.04955743       0.00000000
Si      -1.30243438       3.31706757      -1.26952942       0.00000000
Si       1.30929247      -2.21845530      -2.84280179       0.00000000
Si       3.17837125      -1.31906484      -1.72104473       0.00000000
H       -0.00503361       3.86929858      -0.35255305       0.00000000
