10
Lattice="16.290000149 0.0 0.0 0.0 16.290000149 0.0 0.0 0.0 29.1751946751" Properties=species:S:1:pos:R:3:initial_magmoms:R:1 pbc="T T T"
Si       1.34216243       1.36057339       1.35463346       0.00000000
Si      -1.33608952       1.37518552      -1.35358316       0.00000000
Si       1.36539849      -1.35122293      -1.34979038       0.00000000
Si      -1.35519769      -1.34786719       1.37240116       0.00000000
Si      -2.69506649       0.01001835      -2.68470141       0.00000000
Si       2.66973554       0.00115659       2.72169556       0.00000000
Si      -0.00420282      -2.71971326      -2.67580298       0.00000000
Si       2.69436602      -2.71111214       0.02401119       0.00000000
Si      -2.68377752       2.72305271       0.01216606       0.00000000
Si       2.69286734       2.72616410      -0.00919019       0.00000000
