10
Lattice="16.290000149 0.0 0.0 0.0 16.290000149 0.0 0.0 0.0 29.1751946751" Properties=species:S:1:pos:R:3:initial_magmoms:R:1 pbc="T T T"
Si       1.40898727      -1.17951004      -1.47019641       0.00000000
Si      -1.31656433      -1.42718320       1.34593926       0.00000000
Si      -1.84057779       1.17394049      -0.93392716       0.00000000
Si       1.44663346       1.44112419       1.27527693       0.00000000
H        0.80703919       2.59341689      -1.44796491       0.00000000
Si      -0.47439738       2.55611279      -2.26746695       0.00000000
Si      -2.77228110       1.98887870       1.06139358       0.00000000
Si      -2.48704173       0.16400593       2.63195266       0.00000000
Si      -0.13176981      -2.49116456      -2.66086528       0.00000000
Si       2.79810075      -2.49476465      -0.04017424       0.00000000
