10
Lattice="16.290000149 0.0 0.0 0.0 16.290000149 0.0 0.0 0.0 29.1751946751" Properties=species:S:1:pos:R:3:initial_magmoms:R:1 pbc="T T T"
Si       1.34415307      -1.33100704      -1.38643443       0.00000000
Si      -1.36288657       1.33960816      -1.36388200       0.00000000
Si      -1.35229807      -1.39132891       1.32674198       0.00000000
Si       1.37064061       1.34824186       1.35527532       0.00000000
Si      -2.73175158      -0.04351059       2.64659861       0.00000000
Si      -2.69799869      -0.06493194      -2.70229406       0.00000000
Si       2.68952789      -2.71178003      -0.03194684       0.00000000
Si      -2.71854038       2.69299766       0.00107948       0.00000000
Si       0.02586852       2.71446788       2.70436550       0.00000000
Si       2.71867997       2.70143588      -0.00233402       0.00000000
