10
Lattice="16.290000149 0.0 0.0 0.0 16.290000149 0.0 0.0 0.0 29.1751946751" Properties=species:S:1:pos:R:3:initial_magmoms:R:1 pbc="T T T"
Si      -1.34615674      -1.33008177       1.34670656       0.00000000
Si       1.31551525      -1.32306078      -1.40054063       0.00000000
Si      -1.20283732       1.39716073      -1.44136548       0.00000000
Si       1.42847011       1.40395366       1.24237607       0.00000000
Si       2.30449745       0.46382517      -2.55324674       0.00000000
Si       0.67127833       2.19916631      -2.63726780       0.00000000
Si      -2.64754856      -2.65728998      -0.07869134       0.00000000
Si      -2.70221780       0.06529032       2.63572501       0.00000000
Si       2.69835707      -2.64766017      -0.03525531       0.00000000
Si       0.05040126       2.75273310       2.59272078       0.00000000
