10
Lattice="16.290000149 0.0 0.0 0.0 16.290000149 0.0 0.0 0.0 29.1751946751" Properties=species:S:1:pos:R:3:initial_magmoms:R:1 pbc="T T T"
Si       1.48752951      -1.17028990       1.33313135       0.00000000
Si      -1.27297392      -1.42788367      -1.30771975       0.00000000
Si      -1.32451548       1.28664937       1.44671038       0.00000000
Si       1.48054110       1.36987498      -1.20811564       0.00000000
Si       2.11414065       0.66329623       2.69397913       0.00000000
Si       0.44663108       2.29615697       2.59749676       0.00000000
Si      -2.59422325      -0.04965192      -2.64248491       0.00000000
Si       0.13670242       2.72259659      -2.59437501       0.00000000
Si      -2.55273262       2.77770567       0.07985251       0.00000000
Si       0.29343829      -2.55591731       2.76566258       0.00000000
