10
Lattice="16.290000149 0.0 0.0 0.0 16.290000149 0.0 0.0 0.0 29.1751946751" Properties=species:S:1:pos:R:3:initial_magmoms:R:1 pbc="T T T"
Si       0.08316045      -0.69266710      -2.22960922       0.00000000
Si      -0.98898220      -1.78688595       1.15270611       0.00000000
Si       1.83870119       0.88181029       1.18618172       0.00000000
Si      -1.63321912       1.73534114      -0.08402106       0.00000000
H        2.53403984      -0.94657933      -0.73621853       0.00000000
Si      -2.30449745      -0.46382517       2.55324674       0.00000000
Si       0.55133506       2.33072435       2.51435620       0.00000000
Si      -2.12079512      -0.31161141      -3.03329831       0.00000000
Si      -2.07233237       1.98296543      -2.36731614       0.00000000
Si       2.02180079       0.33534594      -3.13196882       0.00000000
