10
Lattice="16.290000149 0.0 0.0 0.0 16.290000149 0.0 0.0 0.0 29.1751946751" Properties=species:S:1:pos:R:3:initial_magmoms:R:1 pbc="T T T"
Si       1.34214940      -1.35545833      -1.34375141       0.00000000
Si       1.30390048       1.18423414       1.55322289       0.00000000
Si      -1.32160771      -1.40300884       1.34295142       0.00000000
Si      -1.21539691       1.41553585      -1.44881128       0.00000000
Si      -0.16026102      -2.64171674      -2.62888956       0.00000000
Si       0.40197204       2.90165791      -2.38825255       0.00000000
Si      -2.70368390      -0.04660569       2.66730687       0.00000000
Si      -2.69734709       2.71394546      -0.10943645       0.00000000
Si      -2.73439055      -2.69894351      -0.00078569       0.00000000
Si      -0.01659951       2.67304484       2.76155734       0.00000000
