10
Lattice="16.290000149 0.0 0.0 0.0 16.290000149 0.0 0.0 0.0 29.1751946751" Properties=species:S:1:pos:R:3:initial_magmoms:R:1 pbc="T T T"
Si       1.27297392       1.42788367       1.30771975       0.00000000
Si      -1.32124933       1.37823175      -1.33476516       0.00000000
Si       1.40559732      -1.31786101      -1.31031634       0.00000000
Si      -1.37150398      -1.29803608       1.41143757       0.00000000
Si      -2.55599876       2.74483245       0.08682538       0.00000000
Si       0.01544292      -2.69304653      -2.62255825       0.00000000
Si       2.78236461      -2.54526365       0.13534373       0.00000000
Si      -2.70914105       0.01811448      -2.66521238       0.00000000
Si       2.73820241       0.08032599      -2.65112076       0.00000000
Si       2.76050343       0.25759377       2.64085110       0.00000000
