10
Lattice="16.290000149 0.0 0.0 0.0 16.290000149 0.0 0.0 0.0 29.1751946751" Properties=species:S:1:pos:R:3:initial_magmoms:R:1 pbc="T T T"
Si       1.37857384       1.36410832       1.30456883       0.00000000
Si      -1.31681845       1.39158955      -1.34167968       0.00000000
Si       1.32726034      -1.35871633      -1.36636189       0.00000000
Si      -1.37073835      -1.35848827       1.33756597       0.00000000
Si      -2.62901054       0.03147228      -2.68683996       0.00000000
Si      -0.00702099       2.67841811       2.66246992       0.00000000
Si       2.73823500       0.04579119      -2.62389156       0.00000000
Si       2.70788672      -0.00250866       2.68032513       0.00000000
Si      -0.09241317      -2.78795208      -2.60177968       0.00000000
Si      -0.00825903      -2.72479574       2.67265206       0.00000000
