10
Lattice="16.290000149 0.0 0.0 0.0 16.290000149 0.0 0.0 0.0 29.1751946751" Properties=species:S:1:pos:R:3:initial_magmoms:R:1 pbc="T T T"
Si       1.81716581      -0.88741405       1.14999865       0.00000000
Si      -0.87488704       1.77732047       1.28598423       0.00000000
Si       1.11821077       1.44176275      -1.55188696       0.00000000
Si      -1.02224638      -2.14884650      -0.39094761       0.00000000
H       -1.92316484      -0.59715883      -1.89805064       0.00000000
Si       2.60058449       2.45394191      -0.07994003       0.00000000
Si      -0.04989627      -2.55405374      -2.54369770       0.00000000
Si      -1.95607064       0.61527331       2.99427940       0.00000000
Si       0.99390178       3.24392547       1.44204235       0.00000000
H        3.19301922      -0.62459119      -1.75929341       0.00000000
