10
Lattice="16.290000149 0.0 0.0 0.0 16.290000149 0.0 0.0 0.0 29.1751946751" Properties=species:S:1:pos:R:3:initial_magmoms:R:1 pbc="T T T"
Si       0.68966974      -2.04837467      -0.76838710       0.00000000
Si      -0.61320448      -0.51484545       2.18145848       0.00000000
Si      -1.81716581       0.88741405      -1.14999865       0.00000000
Si       1.76327849       1.48454029      -0.33163444       0.00000000
H        1.37585341       0.26282286      -2.90929206       0.00000000
Si       0.15827364       1.53189532       3.06004029       0.00000000
Si      -2.83941219      -1.26143245      -1.54094626       0.00000000
Si       2.15241401       2.13271940       1.88985241       0.00000000
Si      -0.69895504       2.32917680      -2.70188560       0.00000000
Si       0.78341869       3.34135596      -1.22993868       0.00000000
