10
Lattice="16.290000149 0.0 0.0 0.0 16.290000149 0.0 0.0 0.0 29.1751946751" Properties=species:S:1:pos:R:3:initial_magmoms:R:1 pbc="T T T"
Si      -1.34317567      -1.32882418      -1.40799489       0.00000000
Si      -1.41149593       1.35084826       1.33047640       0.00000000
Si       1.35451351       1.34568433      -1.39550791       0.00000000
Si       1.39814726      -1.35384562       1.35264955       0.00000000
Si      -2.68424993      -2.67698459      -0.03568126       0.00000000
Si      -0.03243339       2.74069478       2.63848791       0.00000000
Si       2.65818919      -2.72202644      -0.07623478       0.00000000
Si      -2.73505844       2.66364308      -0.11034059       0.00000000
Si      -2.74414827      -0.03955212       2.70334436       0.00000000
Si       2.77984943       0.05334975       2.66976371       0.00000000
