10
Lattice="16.290000149 0.0 0.0 0.0 16.290000149 0.0 0.0 0.0 29.1751946751" Properties=species:S:1:pos:R:3:initial_magmoms:R:1 pbc="T T T"
Si       1.35335692       1.34271955       1.30941191       0.00000000
Si      -1.31185000       1.42809544      -1.29546617       0.00000000
Si       1.43659882      -1.33543792      -1.28125785       0.00000000
Si      -1.37321443      -1.25187022       1.43396082       0.00000000
Si      -2.66222585       0.04140918      -2.61864877       0.00000000
Si       0.06859719      -2.69316056      -2.60896261       0.00000000
Si      -0.01966203      -2.61037478       2.73914233       0.00000000
Si      -2.68535765      -2.68359833       0.11223697       0.00000000
Si      -2.61190604       2.78559003       0.12189396       0.00000000
Si       0.06401970       2.75797848      -2.65126664       0.00000000
