10
Lattice="16.290000149 0.0 0.0 0.0 16.290000149 0.0 0.0 0.0 29.1751946751" Properties=species:S:1:pos:R:3:initial_magmoms:R:1 pbc="T T T"
Si      -1.37165059       1.35640315       1.33240197       0.00000000
Si      -1.37288863      -1.34737849      -1.34334266       0.00000000
Si       1.34975683       1.36433638      -1.35720088       0.00000000
Si       1.36910935      -1.34433226       1.36373612       0.00000000
Si      -0.00364896       2.71412579       2.66010672       0.00000000
Si      -0.01311345      -2.70474764      -2.68277585       0.00000000
Si       2.71917569      -2.69403208      -0.00933606       0.00000000
Si       2.72096759       0.01884753      -2.69555459       0.00000000
Si      -2.70285311       0.02270826      -2.71568547       0.00000000
Si      -2.71717202      -2.70233183       0.02231902       0.00000000
