10
Lattice="16.290000149 0.0 0.0 0.0 16.290000149 0.0 0.0 0.0 29.1751946751" Properties=species:S:1:pos:R:3:initial_magmoms:R:1 pbc="T T T"
Si      -1.36326124      -1.35052246       1.34911935       0.00000000
Si      -1.38994426       1.34858395      -1.33278124       0.00000000
Si       1.31973436      -1.36834372      -1.38386701       0.00000000
Si       1.36127386       1.34273096       1.37782774       0.00000000
Si      -0.06423147       2.70501968       2.67600721       0.00000000
Si       0.00850338      -2.70228296       2.69605056       0.00000000
Si       2.68886000      -2.71015103      -0.03042973       0.00000000
Si      -0.04566087       2.70353729      -2.69844293       0.00000000
Si       2.69633711       2.70658352       0.00863586       0.00000000
Si       2.69669549      -0.01301571      -2.71580217       0.00000000
