10
Lattice="16.290000149 0.0 0.0 0.0 16.290000149 0.0 0.0 0.0 29.1751946751" Properties=species:S:1:pos:R:3:initial_magmoms:R:1 pbc="T T T"
Si      -1.38513871       1.35658234       1.31005377       0.00000000
Si      -1.37490859      -1.36353817      -1.33024300       0.00000000
Si       1.35347095       1.37738467      -1.34071690       0.00000000
Si       1.35998695      -1.32320413       1.39454513       0.00000000
Si      -0.03189582       2.66926313       2.69219944       0.00000000
Si       2.68205078      -2.69353523       0.01951821       0.00000000
Si      -0.01420488      -2.71406063      -2.68303843       0.00000000
Si       2.70115895       0.02951748      -2.70646611       0.00000000
Si      -2.71810055       0.02912652       2.69543789       0.00000000
Si      -2.72912888      -0.01053963      -2.69835541       0.00000000
