10
Lattice="16.290000149 0.0 0.0 0.0 16.290000149 0.0 0.0 0.0 29.1751946751" Properties=species:S:1:pos:R:3:initial_magmoms:R:1 pbc="T T T"
H        1.35640315       0.57664972       0.27652250       0.00000000
Si      -0.45721143       0.43947162      -2.21066285       0.00000000
Si      -1.36466218       1.34483725       1.32639188       0.00000000
Si      -0.45382311      -2.20695293       0.62271536       0.00000000
H        2.25582293      -1.21420774      -0.18546671       0.00000000
H        2.94347271      -0.28054638       1.44376368       0.00000000
Si       0.62167528      -2.12340152       2.72017845       0.00000000
Si       1.36694278       1.72520876      -2.85123343       0.00000000
Si      -2.76283615      -2.04092525       1.24312587       0.00000000
Si       0.17609490       2.65649177       2.51706075       0.00000000
