10
Lattice="16.290000149 0.0 0.0 0.0 16.290000149 0.0 0.0 0.0 29.1751946751" Properties=species:S:1:pos:R:3:initial_magmoms:R:1 pbc="T T T"
Si      -1.31680298       1.43539336      -1.27574374       0.00000000
Si       1.31418192       1.38394303       1.36379448       0.00000000
Si      -1.39851362      -1.33459084       1.33456093       0.00000000
Si       1.28128589      -1.34563546      -1.45616314       0.00000000
Si      -2.64160353       0.09874363      -2.61272329       0.00000000
Si       2.64718937      -2.69324201      -0.08405374       0.00000000
Si      -0.02996515      -2.69148269       2.67495690       0.00000000
Si       2.66033540       0.02332728       2.71921567       0.00000000
Si       2.69332265       0.04518846      -2.71208233       0.00000000
Si       2.63865341       2.76776877       0.00233402       0.00000000
