10
Lattice="16.290000149 0.0 0.0 0.0 16.290000149 0.0 0.0 0.0 29.1751946751" Properties=species:S:1:pos:R:3:initial_magmoms:R:1 pbc="T T T"
Si      -1.33863076      -1.44634024       1.25572955       0.00000000
Si       1.34477209      -1.36622602      -1.34909018       0.00000000
Si      -1.38753334       1.34229601      -1.34582256       0.00000000
Si       1.25714818       1.36932112       1.45403335       0.00000000
Si      -2.69974172      -0.07802910       2.52102857       0.00000000
Si       2.63746505       2.69434973       0.06497316       0.00000000
Si      -0.02666673       2.70497081      -2.68750223       0.00000000
Si       2.69281145      -0.01303200      -2.70669951       0.00000000
Si       2.68783373      -2.72394866       0.01983913       0.00000000
Si      -0.02586852      -2.71446788      -2.70436550       0.00000000
