10
Lattice="16.290000149 0.0 0.0 0.0 16.290000149 0.0 0.0 0.0 29.1751946751" Properties=species:S:1:pos:R:3:initial_magmoms:R:1 pbc="T T T"
Si       1.34509789       1.46324926      -1.23207868       0.00000000
Si       1.38587176      -1.33897285       1.37231655       0.00000000
Si      -1.35995437       1.45878580       1.28733504       0.00000000
Si      -1.21941419      -1.49006260      -1.39932694       0.00000000
Si      -2.67884165      -2.66787848       0.01811780       0.00000000
Si      -2.66295890       0.10538001       2.72187353       0.00000000
Si      -0.01227289       2.70506855      -2.68904560       0.00000000
Si       2.79171507       0.27098415      -2.58789520       0.00000000
Si       0.03970850      -2.66771558       2.75358697       0.00000000
Si       0.03049162       2.74585872       2.72236951       0.00000000
