10
Lattice="16.290000149 0.0 0.0 0.0 16.290000149 0.0 0.0 0.0 29.1751946751" Properties=species:S:1:pos:R:3:initial_magmoms:R:1 pbc="T T T"
Si      -0.38913552      -0.64817911      -2.22148685       0.00000000
Si      -1.99414037      -0.60082408       1.17018788       0.00000000
Si       0.77263471       2.04380858       1.00660257       0.00000000
Si       1.48421449      -1.87074362       0.35199872       0.00000000
H       -2.25693065       2.07902756      -0.27328405       0.00000000
Si       1.78873976       0.70366285       2.62696370       0.00000000
H        2.74494648       1.95372488      -0.03019633       0.00000000
Si      -2.15241401      -2.13271940      -1.88985241       0.00000000
H       -0.45320409       3.29105244      -1.34964451       0.00000000
Si      -1.06779322      -1.64551808       3.00428650       0.00000000
