10
Lattice="16.290000149 0.0 0.0 0.0 16.290000149 0.0 0.0 0.0 29.1751946751" Properties=species:S:1:pos:R:3:initial_magmoms:R:1 pbc="T T T"
H        1.97231177      -0.09008370      -1.03679889       0.00000000
Si       1.01610505      -1.34014573       1.62036114       0.00000000
Si       0.77007718       1.87172102      -1.28948525       0.00000000
Si      -0.77263471      -2.04380858      -1.00660257       0.00000000
Si      -1.07699707       1.10408734       1.87071348       0.00000000
H       -1.22583880       1.24724386      -2.35624707       0.00000000
H       -3.02956536       0.03521898      -1.27988662       0.00000000
H       -1.87618448       1.67153321      -2.39306617       0.00000000
H        2.31350582      -0.78791473       2.53733751       0.00000000
Si      -1.02144817       3.41259213      -0.65127787       0.00000000
