10
Lattice="16.290000149 0.0 0.0 0.0 16.290000149 0.0 0.0 0.0 29.1751946751" Properties=species:S:1:pos:R:3:initial_magmoms:R:1 pbc="T T T"
Si       2.06840648      -0.72181479       0.84765611       0.00000000
Si       0.75683341       0.58370980      -2.15385875       0.00000000
Si      -1.28853901      -1.98490394      -0.11322893       0.00000000
Si      -0.59849461       1.51687594       1.75981857       0.00000000
H        0.68294197       1.55418004       2.57932061       0.00000000
H        0.14724531       1.89156224      -2.59551284       0.00000000
Si      -0.08241111       3.51298740       0.07004964       0.00000000
Si       1.28489005      -2.21874689       2.55708911       0.00000000
Si       3.12176676      -1.38893428      -1.22127365       0.00000000
Si      -1.96467502       0.13470364       3.09335837       0.00000000
