10
Lattice="10.86 0.0 0.0 0.0 10.86 0.0 0.0 0.0 10.86" Properties=species:S:1:pos:R:3:initial_magmoms:R:1 pbc="T T T"
Si       1.62097446       0.63481044       1.52284350       0.00000000
Si      -2.16962166      -1.00080330       0.19905294       0.00000000
Si       1.17078402       1.36449384      -1.83518796       0.00000000
Si       0.54537834      -1.00080330      -2.51594706       0.00000000
Si      -0.81212166      -2.35830330       1.55655294       0.00000000
Si       0.54537834      -1.00080330       2.91405294       0.00000000
Si       1.90287834      -2.35830330      -1.15844706       0.00000000
Si       3.26037834      -1.00080330       0.19905294       0.00000000
Si      -0.97427232       3.26475492       1.52289780       0.00000000
Si      -2.16962166       1.71419670      -2.51594706       0.00000000
