10
Lattice="10.86 0.0 0.0 0.0 10.86 0.0 0.0 0.0 10.86" Properties=species:S:1:pos:R:3:initial_magmoms:R:1 pbc="T T T"
Si      -1.52476572      -0.93056082      -1.49129520       0.00000000
Si      -1.62298356       1.50358872       0.88198404       0.00000000
Si       1.10338686       1.48119540      -1.66526154       0.00000000
Si      -0.18750876      -2.47042194       2.15020398       0.00000000
Si      -2.89843626       0.20307114       2.42997930       0.00000000
Si      -0.18343626       2.91807114       2.42997930       0.00000000
Si      -2.89843626      -2.51192886      -0.28502070       0.00000000
Si       2.53156374       2.91807114      -0.28502070       0.00000000
Si      -0.18343626      -2.51192886      -3.00002070       0.00000000
Si       2.53156374       0.20307114      -3.00002070       0.00000000
