10
Lattice="10.86 0.0 0.0 0.0 10.86 0.0 0.0 0.0 10.86" Properties=species:S:1:pos:R:3:initial_magmoms:R:1 pbc="T T T"
Si       1.57393980      -1.08295920      -1.30806528       0.00000000
Si      -1.14106020       1.63204080      -1.30806528       0.00000000
Si       1.57393980       1.63204080       1.40693472       0.00000000
Si      -2.31297366      -2.33421582       0.13569570       0.00000000
Si       0.11703822      -2.58677598       2.49619272       0.00000000
Si       0.21643980      -2.44045920      -2.66556528       0.00000000
Si      -2.49856020       0.27454080      -2.66556528       0.00000000
Si       2.93143980      -2.44045920       0.04943472       0.00000000
Si      -2.56923708       2.91016506       0.02669388       0.00000000
Si       2.93143980       0.27454080      -2.66556528       0.00000000
