10
Lattice="10.86 0.0 0.0 0.0 10.86 0.0 0.0 0.0 10.86" Properties=species:S:1:pos:R:3:initial_magmoms:R:1 pbc="T T T"
Si      -1.27545270       1.41448242      -1.16700474       0.00000000
Si       1.62298356      -1.50358872      -0.88198404       0.00000000
Si      -1.27545270      -1.30051758       1.54799526       0.00000000
Si       1.43954730       1.41448242       1.54799526       0.00000000
Si       0.09821784      -2.43414954      -2.37327924       0.00000000
Si      -2.63295270       0.05698242      -2.52450474       0.00000000
Si       2.72637042      -0.02239332      -2.54724558       0.00000000
Si      -2.63295270      -2.65801758       0.19049526       0.00000000
Si       0.08204730       2.77198242      -2.52450474       0.00000000
Si      -2.63295270       2.77198242       0.19049526       0.00000000
