10
Lattice="10.86 0.0 0.0 0.0 10.86 0.0 0.0 0.0 10.86" Properties=species:S:1:pos:R:3:initial_magmoms:R:1 pbc="T T T"
Si       1.15914210      -1.19682630       1.50313260       0.00000000
Si       1.15914210       1.51817370      -1.21186740       0.00000000
Si      -1.55585790      -1.19682630      -1.21186740       0.00000000
Si       2.51664210      -2.55432630       0.14563260       0.00000000
Si       2.51664210       0.16067370      -2.56936740       0.00000000
Si      -0.19835790      -2.55432630      -2.56936740       0.00000000
Si       2.51664210       0.16067370       2.86063260       0.00000000
Si       2.51664210       2.87567370       0.14563260       0.00000000
Si      -0.19835790      -2.55432630       2.86063260       0.00000000
Si      -0.19835790       2.87567370      -2.56936740       0.00000000
