10
Lattice="10.86 0.0 0.0 0.0 10.86 0.0 0.0 0.0 10.86" Properties=species:S:1:pos:R:3:initial_magmoms:R:1 pbc="T T T"
Si       1.27004442       1.24198218      -1.42959954       0.00000000
Si      -1.34150322       1.41353760       1.23118734       0.00000000
Si       1.44225144      -1.28470542       1.31739402       0.00000000
Si       0.08149344      -2.59248834       2.59686492       0.00000000
Si      -2.63350656      -2.59248834      -0.11813508       0.00000000
Si      -2.63350656       0.12251166       2.59686492       0.00000000
Si       2.79649344      -2.59248834      -0.11813508       0.00000000
Si       2.79649344       0.12251166       2.59686492       0.00000000
Si       0.08149344      -2.59248834      -2.83313508       0.00000000
Si       0.08149344       2.83751166       2.59686492       0.00000000
