10
Lattice="10.86 0.0 0.0 0.0 10.86 0.0 0.0 0.0 10.86" Properties=species:S:1:pos:R:3:initial_magmoms:R:1 pbc="T T T"
Si      -1.29200334      -1.29102594       1.36567758       0.00000000
Si       1.34150322      -1.41353760      -1.23118734       0.00000000
Si      -1.29200334       1.42397406      -1.34932242       0.00000000
Si       1.42299666       1.42397406       1.36567758       0.00000000
Si       2.61154764      -0.17155542      -2.66078688       0.00000000
Si      -2.64950334      -2.64852594       0.00817758       0.00000000
Si      -2.64950334       0.06647406      -2.70682242       0.00000000
Si       0.06549666      -2.64852594       2.72317758       0.00000000
Si      -2.64950334       0.06647406       2.72317758       0.00000000
Si       0.10817646       2.76135048      -2.65035042       0.00000000
