10
Lattice="16.28999089631971 0.0 0.0 0.0 16.28999089631971 0.0 0.0 0.0 34.63643526849801" Properties=species:S:1:pos:R:3:initial_magmoms:R:1 pbc="T T T"
Si       1.34296275       1.35080353       1.37797671       0.00000000
Si      -1.36002948       1.35511713      -1.36190540       0.00000000
Si       1.35689884      -1.36077841      -1.36107412       0.00000000
Si      -1.35975255      -1.37027548       1.37821917       0.00000000
Si      -2.71607424       2.71021381      -0.00356755       0.00000000
Si       2.71184240       2.71682755       0.00211282       0.00000000
Si       2.71088129      -2.71851733      -0.00190501       0.00000000
Si      -0.00111504       2.71213603      -2.71882314       0.00000000
Si       2.71369946      -0.00253108      -2.71840750       0.00000000
Si      -2.71710051      -2.71578061       0.00013855       0.00000000
