10
Lattice="16.28999089631971 0.0 0.0 0.0 16.28999089631971 0.0 0.0 0.0 34.63643526849801" Properties=species:S:1:pos:R:3:initial_magmoms:R:1 pbc="T T T"
Si       1.05422038       2.02960924       0.46111512       0.00000000
Si       1.50574660      -0.97751403      -1.50169813       0.00000000
Si      -2.34531432      -0.05677065      -0.45003145       0.00000000
Si       0.14253587      -1.01765259       2.16003322       0.00000000
Si       0.09078580       2.27810667       2.61567578       0.00000000
Si      -1.33939053       0.43199451       3.20768206       0.00000000
Si      -3.15095256       0.02723688       1.75890844       0.00000000
Si       1.89866140      -3.05839863      -0.57357969       0.00000000
Si       0.31809320      -0.91637766      -3.56121636       0.00000000
Si       3.41454364       1.53244917       0.39180757       0.00000000
