10
Lattice="16.28999089631971 0.0 0.0 0.0 16.28999089631971 0.0 0.0 0.0 34.63643526849801" Properties=species:S:1:pos:R:3:initial_magmoms:R:1 pbc="T T T"
Si      -0.78889212       0.46987365       2.14229936       0.00000000
Si       0.25562268       2.10340227      -1.01176548       0.00000000
Si      -1.71455508      -1.24846071      -1.03621881       0.00000000
Si       2.07692613      -1.22302551      -0.49530130       0.00000000
Si      -0.61779825      -0.96118493      -3.17398079       0.00000000
Si       0.98570790       0.96210858      -3.12012111       0.00000000
Si       2.56805334       2.22202605      -0.48255509       0.00000000
Si      -1.81532502      -1.70439242       2.36043975       0.00000000
Si      -1.58195448      -3.15514724       0.37833399       0.00000000
Si       3.00602628       0.42458745      -1.97549019       0.00000000
