10
Lattice="16.28999089631971 0.0 0.0 0.0 16.28999089631971 0.0 0.0 0.0 34.63643526849801" Properties=species:S:1:pos:R:3:initial_magmoms:R:1 pbc="T T T"
Si      -0.25562268      -2.10340227       1.01176548       0.00000000
Si       2.31243066       0.11862378       0.52921039       0.00000000
Si      -1.03900878       2.18655783       0.35523148       0.00000000
Si       0.73008522      -1.14129369      -2.10835563       0.00000000
Si      -0.71715096       2.15410815      -2.19647077       0.00000000
Si       2.75040360      -1.67881482      -0.96372471       0.00000000
Si       2.46068595       2.37746034       0.06722936       0.00000000
Si      -1.04451480      -1.63352862       3.15406483       0.00000000
Si       0.76069413       3.39069834       1.35085637       0.00000000
Si       0.31825773       0.48995433      -3.76633344       0.00000000
