10
Lattice="16.28999089631971 0.0 0.0 0.0 16.28999089631971 0.0 0.0 0.0 34.63643526849801" Properties=species:S:1:pos:R:3:initial_magmoms:R:1 pbc="T T T"
Si       1.35532800       1.35544203      -1.35761048       0.00000000
Si       1.35464382      -1.35982404       1.35899593       0.00000000
Si      -1.35979146       1.35485559       1.35951548       0.00000000
Si      -1.35905841      -1.35936792      -1.35719484       0.00000000
Si       2.71381626       2.71153566      -0.00062346       0.00000000
Si       2.71290402      -0.00320913      -2.71466677       0.00000000
Si      -0.00175932       2.71288773      -2.71490922       0.00000000
Si      -2.71604799       2.71195920      -0.00020782       0.00000000
Si      -0.00097740      -2.71691950      -2.71452822       0.00000000
Si      -2.71679733      -0.00278559      -2.71508241       0.00000000
