10
Lattice="16.28999089631971 0.0 0.0 0.0 16.28999089631971 0.0 0.0 0.0 34.63643526849801" Properties=species:S:1:pos:R:3:initial_magmoms:R:1 pbc="T T T"
Si       0.34135695      -0.27921060       2.31271071       0.00000000
Si       1.69999182      -1.01323800      -1.28362701       0.00000000
Si      -1.79970291      -1.20414051      -0.99562489       0.00000000
Si       0.58240008       2.32388253      -0.34324727       0.00000000
Si       0.85204845      -0.54242442      -3.37227450       0.00000000
Si      -0.56044116       1.79602137       3.00079852       0.00000000
Si       1.55173653      -3.27207456      -0.82164598       0.00000000
Si      -0.76069413      -3.39069834      -1.35085637       0.00000000
Si       2.54756052       2.18289258      -1.69147126       0.00000000
Si      -2.57398290       2.08692819       1.84252084       0.00000000
