10
Lattice="16.28999089631971 0.0 0.0 0.0 16.28999089631971 0.0 0.0 0.0 34.63643526849801" Properties=species:S:1:pos:R:3:initial_magmoms:R:1 pbc="T T T"
Si       2.09194551       0.85643046       0.59553920       0.00000000
Si      -0.68168763      -0.66342654       2.16483179       0.00000000
Si       1.02297942      -1.92249693      -1.24632355       0.00000000
Si      -0.94819203       2.12002947      -0.95146341       0.00000000
Si       2.87142201       1.29145491      -1.68433615       0.00000000
Si       1.13507091       2.97955503      -1.77913613       0.00000000
Si       3.31196877      -1.22640894      -1.30174187       0.00000000
Si       3.47991867      -1.09343367       0.97115323       0.00000000
Si       0.62980398      -1.47253455      -3.51165159       0.00000000
Si       1.09669167      -1.51397631       3.46221640       0.00000000
