10
Lattice="16.28999089631971 0.0 0.0 0.0 16.28999089631971 0.0 0.0 0.0 34.63643526849801" Properties=species:S:1:pos:R:3:initial_magmoms:R:1 pbc="T T T"
Si      -0.86711670      -2.14356852       0.35218347       0.00000000
Si      -0.39317544       0.44996238      -2.26532804       0.00000000
Si       2.28898935       0.69608799      -0.05541833       0.00000000
Si      -1.02297942       1.92249693       1.24632355       0.00000000
Si       2.45693925       0.82906326       2.21747678       0.00000000
Si       1.06896609       2.77892739       1.84186275       0.00000000
Si       0.39786696      -2.69376327       2.23684999       0.00000000
Si       1.22109840       2.17272762      -2.63458728       0.00000000
Si       1.84844259       3.21395184      -0.43801261       0.00000000
Si      -3.53611917      -1.08186777       0.84772723       0.00000000
