10
Lattice="16.28999089631971 0.0 0.0 0.0 16.28999089631971 0.0 0.0 0.0 34.63643526849801" Properties=species:S:1:pos:R:3:initial_magmoms:R:1 pbc="T T T"
Si       1.40550120       1.35563751      -1.34340953       0.00000000
Si      -1.25507934      -1.44891405      -1.45254900       0.00000000
Si       1.76355540      -0.96339060       1.34157380       0.00000000
Si      -1.64431260       1.02151332       1.49269265       0.00000000
Si      -2.66012442      -2.49694749       0.17183145       0.00000000
Si       1.06158672      -3.08882835       1.89703862       0.00000000
Si      -2.69048898       2.70474273       0.09916417       0.00000000
Si       0.10332747       2.58237225      -2.86155997       0.00000000
Si      -2.60156187      -0.13219335      -2.86408843       0.00000000
Si       2.72258028      -2.87793801       0.00581892       0.00000000
