10
Lattice="16.28999089631971 0.0 0.0 0.0 16.28999089631971 0.0 0.0 0.0 34.63643526849801" Properties=species:S:1:pos:R:3:initial_magmoms:R:1 pbc="T T T"
Si       1.88560008      -1.20075219       0.74793960       0.00000000
Si       0.33169698       2.33753355      -0.08679896       0.00000000
Si       0.13155804      -0.60069375      -2.33712941       0.00000000
Si      -2.07137124      -0.35466588       1.19845597       0.00000000
Si      -3.22877574       1.19614212      -0.10903556       0.00000000
Si       0.96169644      -3.36774573       0.53506395       0.00000000
Si       2.59867854       2.63749761      -0.59598947       0.00000000
Si      -2.45343690       1.69732026      -2.30716888       0.00000000
Si      -2.60965800      -2.61361647       0.79934010       0.00000000
Si       2.39335938      -0.48905838       2.98354956       0.00000000
