10
Lattice="16.28999089631971 0.0 0.0 0.0 16.28999089631971 0.0 0.0 0.0 34.63643526849801" Properties=species:S:1:pos:R:3:initial_magmoms:R:1 pbc="T T T"
Si       2.11333428      -1.00182197       0.25454331       0.00000000
Si      -0.67677782       0.80180683       2.14344236       0.00000000
Si      -1.42082357      -1.55687832      -1.22474504       0.00000000
Si       0.53541972       1.51573237      -1.95695969       0.00000000
Si      -1.68560123       2.86708561      -1.59639419       0.00000000
Si      -2.84759693       1.70930644       1.69271817       0.00000000
Si       3.21009111      -0.71454619      -1.88321867       0.00000000
Si       1.08955665       2.20305634       2.92290113       0.00000000
Si      -0.34775892      -0.96059361       3.72050941       0.00000000
Si      -3.57626492      -0.45428900      -1.53726977       0.00000000
