10
Lattice="16.28999089631971 0.0 0.0 0.0 16.28999089631971 0.0 0.0 0.0 34.63643526849801" Properties=species:S:1:pos:R:3:initial_magmoms:R:1 pbc="T T T"
Si       2.08326294       0.85952556      -0.82767272       0.00000000
Si      -0.70003017       1.81385892       1.45074790       0.00000000
Si       0.94819203      -2.12002947       0.95146341       0.00000000
Si      -1.06662033      -0.50305149      -2.27779717       0.00000000
Si       0.80288523       0.87654861      -2.81407339       0.00000000
Si      -2.05144857       0.45807480       2.96166421       0.00000000
Si       3.04013754      -1.26359901       1.54700261       0.00000000
Si      -2.07212058       3.33917307       0.16400361       0.00000000
Si       3.81961404      -0.82857456      -0.73287274       0.00000000
Si      -0.63138411      -2.74598901      -2.90714155       0.00000000
