10
Lattice="16.28999089631971 0.0 0.0 0.0 16.28999089631971 0.0 0.0 0.0 34.63643526849801" Properties=species:S:1:pos:R:3:initial_magmoms:R:1 pbc="T T T"
Si      -1.19399184       0.16089633       2.00475799       0.00000000
Si      -1.87963794      -1.01053386      -1.05537277       0.00000000
Si       1.01845080       1.85633251      -1.12946015       0.00000000
Si       1.71509265      -1.73727963       0.29676514       0.00000000
Si       2.18419578       0.34316514      -2.50653631       0.00000000
Si      -0.54258732      -2.38018077      -2.48236007       0.00000000
Si       0.39268674      -0.13408299       3.71354748       0.00000000
Si      -2.07049158       2.32574841       2.13544134       0.00000000
Si       3.46410108      -1.00748763      -1.11529384       0.00000000
Si       2.39298471      -1.33059978       2.63226664       0.00000000
