10
Lattice="16.28999089631971 0.0 0.0 0.0 16.28999089631971 0.0 0.0 0.0 34.63643526849801" Properties=species:S:1:pos:R:3:initial_magmoms:R:1 pbc="T T T"
Si      -1.08499545       1.14847222      -1.72305971       0.00000000
Si       2.21604273       0.84567906      -0.16757117       0.00000000
Si      -0.36173574      -2.32834599      -0.36312859       0.00000000
Si      -0.82437174       0.29352951       2.22397212       0.00000000
Si       0.37957329      -3.02572089       1.79337171       0.00000000
Si       3.48462648      -0.97420716       0.80883049       0.00000000
Si       2.15585118      -1.67842386       2.61373614       0.00000000
Si      -1.38429162      -1.97897436       2.95975432       0.00000000
Si      -1.17288000      -0.26505459      -3.64434385       0.00000000
Si      -2.71899648      -2.53747701      -0.95066677       0.00000000
