10
Lattice="16.28999089631971 0.0 0.0 0.0 16.28999089631971 0.0 0.0 0.0 34.63643526849801" Properties=species:S:1:pos:R:3:initial_magmoms:R:1 pbc="T T T"
Si       0.95897601      -1.04295096      -1.89648444       0.00000000
Si       0.36173574       2.32834599       0.36312859       0.00000000
Si       0.74130903      -0.69737490       2.15650030       0.00000000
Si      -2.35726074      -0.20913102      -0.58753818       0.00000000
Si      -1.02255588       0.34937163       3.32288291       0.00000000
Si      -0.46263600       2.62187550       2.58710071       0.00000000
Si      -0.72325971       3.47681821      -1.35993112       0.00000000
Si      -0.07804539      -0.14204880      -3.80297881       0.00000000
Si      -2.84252355       1.41661098      -2.19712886       0.00000000
Si       0.62727903      -3.38048451      -1.80968548       0.00000000
