10
Lattice="16.28999089631971 0.0 0.0 0.0 16.28999089631971 0.0 0.0 0.0 34.63643526849801" Properties=species:S:1:pos:R:3:initial_magmoms:R:1 pbc="T T T"
Si      -0.62859852       1.05443541       2.00358035       0.00000000
Si       2.32811793      -0.22667535       0.26053541       0.00000000
Si      -0.43883631       1.49920128      -1.79233262       0.00000000
Si      -0.42855732      -2.41672413       0.75001779       0.00000000
Si      -2.09961321      -1.95254384      -1.00262145       0.00000000
Si       2.01324852      -2.53568136       0.53984378       0.00000000
Si       2.66403402       0.93245589       2.27519943       0.00000000
Si      -2.42743480      -0.12333159       2.76772982       0.00000000
Si      -3.56443838      -0.14859738      -1.04068692       0.00000000
Si       0.95609268       3.37331691      -1.27926282       0.00000000
