10
Lattice="16.28999089631971 0.0 0.0 0.0 16.28999089631971 0.0 0.0 0.0 34.63643526849801" Properties=species:S:1:pos:R:3:initial_magmoms:R:1 pbc="T T T"
Si       0.77709816       1.80139707      -1.31403782       0.00000000
Si       1.46955348      -1.88197460      -0.15707632       0.00000000
Si      -1.85665275      -0.81331246      -1.40488924       0.00000000
Si       0.88127271       0.62381415       2.25206228       0.00000000
Si       2.02927788       0.38621309      -2.76284608       0.00000000
Si      -1.32177060       1.04187582       3.05850285       0.00000000
Si       2.19326931       2.94397767       0.22524086       0.00000000
Si      -0.69090777      -2.32647983      -2.78196540       0.00000000
Si       3.32588043      -0.98636669      -1.35896130       0.00000000
Si      -2.87510355      -2.66964497      -0.27542909       0.00000000
