10
Lattice="16.28999089631971 0.0 0.0 0.0 16.28999089631971 0.0 0.0 0.0 34.63643526849801" Properties=species:S:1:pos:R:3:initial_magmoms:R:1 pbc="T T T"
Si      -0.43797294       1.79743860       1.49293510       0.00000000
Si       2.20304331      -0.41806167      -0.80644057       0.00000000
Si      -2.02031838       0.53752113      -1.14463092       0.00000000
Si      -0.92910015      -1.64761295       1.48018889       0.00000000
Si      -2.75040360       1.67881482       0.96372471       0.00000000
Si       1.32177060      -1.04187582      -3.05850285       0.00000000
Si       0.77027265       0.98119557       3.35523336       0.00000000
Si      -3.00602628      -0.42458745       1.97549019       0.00000000
Si       3.38313978       1.59083253      -0.08759559       0.00000000
Si       0.17198982      -1.34856276       3.58999925       0.00000000
