10
Lattice="16.28999089631971 0.0 0.0 0.0 16.28999089631971 0.0 0.0 0.0 34.63643526849801" Properties=species:S:1:pos:R:3:initial_magmoms:R:1 pbc="T T T"
Si       1.79087373       0.77675933       1.38327751       0.00000000
Si       0.15280020       0.53261784      -2.35569455       0.00000000
Si      -0.89480970      -1.95826718       1.20181366       0.00000000
Si      -1.91065410       1.68195227       0.35228049       0.00000000
Si       1.76883336      -1.10090819      -2.72810571       0.00000000
Si       0.50158539       2.09645132       2.83041976       0.00000000
Si      -2.22839055      -0.65944919       2.79984616       0.00000000
Si      -2.14386174       0.51731176      -2.98829476       0.00000000
Si      -0.85007736       3.44796746       1.49932695       0.00000000
Si      -3.65104512       0.65977758       1.47428826       0.00000000
