10
Lattice="16.28999089631971 0.0 0.0 0.0 16.28999089631971 0.0 0.0 0.0 34.63643526849801" Properties=species:S:1:pos:R:3:initial_magmoms:R:1 pbc="T T T"
Si       1.35830907      -1.35711990      -1.35123737       0.00000000
Si      -1.35900954      -1.35620766       1.35788757       0.00000000
Si       1.35648459       1.36050822       1.35736802       0.00000000
Si      -1.36186029       1.36462959      -1.36093558       0.00000000
Si       0.00975771      -2.69689095      -2.70311551       0.00000000
Si       2.69948106      -0.00627165      -2.70848070       0.00000000
Si       2.71327869      -2.71148679      -0.00038100       0.00000000
Si      -0.00086337      -2.71278999       2.71470140       0.00000000
Si      -2.71814940      -2.71044423       0.00294410       0.00000000
Si       2.71370223       0.00219915       2.71504777       0.00000000
