10
Lattice="16.28999089631971 0.0 0.0 0.0 16.28999089631971 0.0 0.0 0.0 34.63643526849801" Properties=species:S:1:pos:R:3:initial_magmoms:R:1 pbc="T T T"
Si      -1.35361755      -1.35536058      -1.38542355       0.00000000
Si       1.36291914       1.36348929      -1.38608164       0.00000000
Si       1.47123135      -1.29039606       1.42168792       0.00000000
Si      -1.46277684       1.26807876       1.47256887       0.00000000
Si      -2.71687878      -2.69252034      -0.00346365       0.00000000
Si       2.70107748       2.71494027      -0.01984669       0.00000000
Si      -2.71360449       2.71448415      -0.00633847       0.00000000
Si       2.72341107      -2.70558004      -0.02712034       0.00000000
Si      -2.70826137       0.00446346      -2.74441948       0.00000000
Si       0.00493587      -2.71472361      -2.74483512       0.00000000
