10
Lattice="16.28999089631971 0.0 0.0 0.0 16.28999089631971 0.0 0.0 0.0 34.63643526849801" Properties=species:S:1:pos:R:3:initial_magmoms:R:1 pbc="T T T"
Si      -0.84794337       0.47081358      -2.08864749       0.00000000
Si      -0.14825529      -2.25883656       0.46198103       0.00000000
Si       2.00171520       1.15950591       0.26728952       0.00000000
Si      -1.69999182       1.01323800       1.28362701       0.00000000
Si       0.84756870       3.19613058      -0.40784425       0.00000000
Si       2.53239453      -0.41293521      -2.20488743       0.00000000
Si      -2.46068595      -2.37746034      -0.06722936       0.00000000
Si      -3.49969473      -0.19090251       0.28800212       0.00000000
Si      -1.11759174       3.33712053       0.94037974       0.00000000
Si      -0.14597469       2.59625133      -2.64411231       0.00000000
