10
Lattice="16.28999089631971 0.0 0.0 0.0 16.28999089631971 0.0 0.0 0.0 34.63643526849801" Properties=species:S:1:pos:R:3:initial_magmoms:R:1 pbc="T T T"
Si       0.55146537       0.98820027      -2.05446131       0.00000000
Si      -2.30979168      -0.12991275      -0.40760180       0.00000000
Si       0.14064786       1.29081960       1.98369903       0.00000000
Si       1.21881780      -2.03509341      -0.24404846       0.00000000
Si      -0.28887057      -0.80969445      -3.35076526       0.00000000
Si      -2.69974170       2.26302309      -0.68025997       0.00000000
Si       2.22285195       0.75432474       2.85037240       0.00000000
Si       1.44992403      -2.21995233      -2.58256333       0.00000000
Si      -0.98679933       2.77895997      -2.27900944       0.00000000
Si      -2.54213595      -1.16900298      -2.53331029       0.00000000
