10
Lattice="16.28999089631971 0.0 0.0 0.0 16.28999089631971 0.0 0.0 0.0 34.63643526849801" Properties=species:S:1:pos:R:3:initial_magmoms:R:1 pbc="T T T"
Si       1.67883111       0.86244147      -1.44842726       0.00000000
Si      -2.18619945       0.33741477      -0.88558487       0.00000000
Si       0.37291068       1.38697947       1.92315451       0.00000000
Si       0.28553112      -2.43146169       0.20664109       0.00000000
Si       0.97322976      -0.39873033       3.35322445       0.00000000
Si       0.59482935       0.82987776      -3.54978633       0.00000000
Si       1.94225670       3.15656217      -0.95215614       0.00000000
Si      -2.55485844      -1.45925820      -2.45731791       0.00000000
Si       2.05695459       3.04489422       1.41181653       0.00000000
Si       2.36773521      -2.96795655       1.07331446       0.00000000
