10
Lattice="16.28999089631971 0.0 0.0 0.0 16.28999089631971 0.0 0.0 0.0 34.63643526849801" Properties=species:S:1:pos:R:3:initial_magmoms:R:1 pbc="T T T"
Si      -1.91256003       1.15841448       0.70509431       0.00000000
Si       1.81615581       1.46968380      -0.24862047       0.00000000
Si       0.91341288      -1.10302848       1.89544534       0.00000000
Si      -0.35838000      -1.51133733      -1.80753802       0.00000000
Si      -0.84466908      -0.31822515       3.28426326       0.00000000
Si       3.51978030      -0.25552494      -0.40012032       0.00000000
Si       1.12845717      -0.56304756      -3.39520383       0.00000000
Si      -3.52683387      -0.56435076       1.07435355       0.00000000
Si       0.68062878      -3.40565256       1.38999556       0.00000000
Si      -0.35888499      -3.68318529      -0.69359500       0.00000000
