10
Lattice="16.28999089631971 0.0 0.0 0.0 16.28999089631971 0.0 0.0 0.0 34.63643526849801" Properties=species:S:1:pos:R:3:initial_magmoms:R:1 pbc="T T T"
Si      -2.09194551      -0.85643046      -0.59553920       0.00000000
Si       0.42824781       1.76124222       1.48352234       0.00000000
Si       1.38797316      -1.94986413       0.37561403       0.00000000
Si       0.77947650       0.43502445      -2.27987535       0.00000000
Si       1.22002326      -2.08283940      -1.89728107       0.00000000
Si      -0.95687460       2.12312457      -2.37467533       0.00000000
Si       1.75164741       0.36830061       2.86007549       0.00000000
Si      -1.06896609      -2.77892739      -1.84186275       0.00000000
Si      -2.77363314      -1.51985700       1.56929259       0.00000000
Si       3.14284599      -1.00561428       1.50900438       0.00000000
