10
Lattice="16.28999089631971 0.0 0.0 0.0 16.28999089631971 0.0 0.0 0.0 34.63643526849801" Properties=species:S:1:pos:R:3:initial_magmoms:R:1 pbc="T T T"
Si      -1.33160976      -1.36361961       1.38533349       0.00000000
Si       1.43510013      -1.31527089      -1.34852880       0.00000000
Si       1.38030057       1.35117405       1.38072685       0.00000000
Si      -1.34394129       1.42447905      -1.51595103       0.00000000
Si       2.39371776       0.44136126      -2.67601668       0.00000000
Si       0.58383360       2.16774288      -2.90579215       0.00000000
Si      -2.70203859       2.73224025      -0.00021475       0.00000000
Si      -2.69363295      -0.00539199       2.74436406       0.00000000
Si      -2.69817786      -2.74032009       0.00546563       0.00000000
Si       0.02103039       2.70930393       2.74488361       0.00000000
