10
Lattice="16.28999089631971 0.0 0.0 0.0 16.28999089631971 0.0 0.0 0.0 34.63643526849801" Properties=species:S:1:pos:R:3:initial_magmoms:R:1 pbc="T T T"
Si       1.35795069       1.35676152      -1.35677920       0.00000000
Si      -1.35767376       1.35700587       1.35767975       0.00000000
Si       1.35760860      -1.35829278       1.35722947       0.00000000
Si      -1.35886293      -1.35827649      -1.35813002       0.00000000
Si       2.71239903      -0.00006516      -2.71057967       0.00000000
Si      -2.71116099      -0.00118917      -2.71639859       0.00000000
Si      -2.71443528       2.71441899      -0.00017318       0.00000000
Si      -0.00317655      -2.71075374      -2.71847678       0.00000000
Si       2.71495656       2.71432125       0.00038100       0.00000000
Si       2.71516833      -2.71487511      -0.00017318       0.00000000
