10
Lattice="16.28999089631971 0.0 0.0 0.0 16.28999089631971 0.0 0.0 0.0 34.63643526849801" Properties=species:S:1:pos:R:3:initial_magmoms:R:1 pbc="T T T"
Si       1.17405288       2.06019630      -0.18863013       0.00000000
Si      -1.96516044       0.14098995       1.34822400       0.00000000
Si       1.15414650      -2.03662467       0.67513377       0.00000000
Si      -0.99354339      -0.59987925      -2.23626806       0.00000000
Si      -0.84756870      -3.19613058       0.40784425       0.00000000
Si      -1.69551207      -2.72531700      -1.68080323       0.00000000
Si       3.00731319       1.31352786      -1.63511775       0.00000000
Si      -2.54756052      -2.18289258       1.69147126       0.00000000
Si      -3.64086387       1.67459571       0.39371258       0.00000000
Si      -1.65719799       1.05050952       3.52900445       0.00000000
