10
Lattice="16.28999089631971 0.0 0.0 0.0 16.28999089631971 0.0 0.0 0.0 34.63643526849801" Properties=species:S:1:pos:R:3:initial_magmoms:R:1 pbc="T T T"
Si      -1.28037771       0.01702305      -1.98640067       0.00000000
Si      -2.08326294      -0.85952556       0.82767272       0.00000000
Si       1.01343348       2.17909701      -0.03363200       0.00000000
Si       1.73635110      -1.68810012       0.09479998       0.00000000
Si       0.95687460      -2.12312457       2.37467533       0.00000000
Si       0.40861836      -0.91463463      -3.43825694       0.00000000
Si       2.97217566       1.41592680      -1.44593343       0.00000000
Si       1.10900691      -2.72932434      -2.10177470       0.00000000
Si      -1.13507091      -2.97955503       1.77913613       0.00000000
Si       3.70366182      -0.31701969       0.05171223       0.00000000
