10
Lattice="16.28999089631971 0.0 0.0 0.0 16.28999089631971 0.0 0.0 0.0 34.63643526849801" Properties=species:S:1:pos:R:3:initial_magmoms:R:1 pbc="T T T"
Si       0.78051906       1.92308337       1.15883186       0.00000000
Si      -0.27932463       1.04295096      -2.12685150       0.00000000
Si       1.69490934      -1.75995531      -0.33843280       0.00000000
Si      -2.23099695      -1.07531919       0.38706238       0.00000000
Si      -1.33874478      -3.01058748       1.52320737       0.00000000
Si      -1.15988058      -0.75220704      -3.36049810       0.00000000
Si      -0.86760540       3.54873970       0.28228711       0.00000000
Si       0.49451553      -3.75725592       0.07671975       0.00000000
Si      -2.90888901      -1.48199904      -1.94843912       0.00000000
Si      -1.74887811       2.92492556      -1.96977517       0.00000000
