10
Lattice="16.28999089631971 0.0 0.0 0.0 16.28999089631971 0.0 0.0 0.0 34.63643526849801" Properties=species:S:1:pos:R:3:initial_magmoms:R:1 pbc="T T T"
Si      -1.11672837      -1.71820145       1.20999129       0.00000000
Si       1.74177960       1.17246298       1.18925098       0.00000000
Si      -1.78844652       1.77048842       0.03616877       0.00000000
Si       1.62716316      -1.20599498      -1.50015684       0.00000000
Si      -1.58864967       0.02952074      -2.62667289       0.00000000
Si      -2.41043130      -0.24133376       2.58576166       0.00000000
Si       0.32615553       2.50181168       2.58744153       0.00000000
Si      -0.02163312      -1.72496180      -3.19547275       0.00000000
Si      -2.52188748      -2.91462050      -0.37890554       0.00000000
Si       0.31451739      -2.94842225       2.61725312       0.00000000
