10
Lattice="16.28999089631971 0.0 0.0 0.0 16.28999089631971 0.0 0.0 0.0 34.63643526849801" Properties=species:S:1:pos:R:3:initial_magmoms:R:1 pbc="T T T"
Si      -1.35405738      -1.34800402       1.35944621       0.00000000
Si       1.35604476      -1.35509668      -1.35833784       0.00000000
Si      -1.35845568       1.35891180      -1.35802611       0.00000000
Si       1.37725434       1.35376416       1.37641807       0.00000000
Si      -2.60623710       0.06717996       2.80825447       0.00000000
Si       2.71607424      -2.71021381       0.00356755       0.00000000
Si       0.00011403      -2.71242253      -2.71587904       0.00000000
Si      -2.71552671      -2.71348136      -0.00242455       0.00000000
Si       2.71487511       2.71474479       0.00190501       0.00000000
Si       2.71495919       0.00192222      -2.71525559       0.00000000
