10
Lattice="16.28999089631971 0.0 0.0 0.0 16.28999089631971 0.0 0.0 0.0 34.63643526849801" Properties=species:S:1:pos:R:3:initial_magmoms:R:1 pbc="T T T"
Si       1.88227433       1.10348460      -0.98897469       0.00000000
Si      -0.00838935      -2.21789002      -0.92985026       0.00000000
Si       0.72027864      -0.05429457       2.30013768       0.00000000
Si      -2.50505991       0.49845771      -0.16490416       0.00000000
Si      -0.41164830      -1.31905017      -3.12808749       0.00000000
Si      -1.12586706      -1.16212860       3.22867175       0.00000000
Si      -2.03703192      -3.13609283      -0.00720438       0.00000000
Si      -2.86466166       0.24812928       2.46046983       0.00000000
Si       1.72183249       3.32706960      -0.59900285       0.00000000
Si      -2.37315978       0.80972703      -2.91057056       0.00000000
