10
Lattice="16.28999089631971 0.0 0.0 0.0 16.28999089631971 0.0 0.0 0.0 34.63643526849801" Properties=species:S:1:pos:R:3:initial_magmoms:R:1 pbc="T T T"
Si      -2.11364379       0.91786005       0.48310927       0.00000000
Si       1.34110683       1.92050955      -0.27612182       0.00000000
Si       0.39003147      -1.43812030       1.90271900       0.00000000
Si       0.02412549      -0.93283056      -2.24596626       0.00000000
Si      -1.85057658      -2.16742427       1.58925908       0.00000000
Si       2.69818830       0.76533678      -1.84418339       0.00000000
Si      -2.21105799      -1.40192555      -2.27925190       0.00000000
Si      -3.15315756       0.64032732      -1.60048130       0.00000000
Si       0.95532705       0.90644076      -3.41976107       0.00000000
Si      -1.88085969       3.22048413       0.98855905       0.00000000
