10
Lattice="16.28999089631971 0.0 0.0 0.0 16.28999089631971 0.0 0.0 0.0 34.63643526849801" Properties=species:S:1:pos:R:3:initial_magmoms:R:1 pbc="T T T"
Si       2.08220409      -0.53649486       0.86667337       0.00000000
Si      -0.14064786      -1.29081960      -1.98369903       0.00000000
Si      -1.48683717      -0.94828977       1.58766581       0.00000000
Si      -0.28553112       2.43146169      -0.20664109       0.00000000
Si      -1.12845717       0.56304756       3.39520383       0.00000000
Si      -2.45043954      -1.42073235      -2.39130083       0.00000000
Si       0.68769864       2.03273136       3.14658336       0.00000000
Si       2.39132313       0.30752262       2.99508350       0.00000000
Si       3.80601189       0.44123094      -0.38380655       0.00000000
Si      -2.47173057       2.76887646      -1.09222596       0.00000000
