10
Lattice="16.28999089631971 0.0 0.0 0.0 16.28999089631971 0.0 0.0 0.0 34.63643526849801" Properties=species:S:1:pos:R:3:initial_magmoms:R:1 pbc="T T T"
Si      -1.35674653      -1.35783666      -1.35650211       0.00000000
Si       1.35852410       1.35751086      -1.35622502       0.00000000
Si      -1.35683061       1.35498591       1.36065848       0.00000000
Si       1.35621092      -1.35314514       1.36443386       0.00000000
Si      -2.71414599      -0.00050499      -2.71393940       0.00000000
Si       0.00120546      -2.71510806      -2.71421649       0.00000000
Si       0.00078029       2.71643895      -2.71321204       0.00000000
Si      -2.69445138      -0.00599472       2.73517155       0.00000000
Si       2.71575803      -0.00050499      -2.71418186       0.00000000
Si      -2.71426002       2.71596654       0.00024246       0.00000000
