10
Lattice="16.28999089631971 0.0 0.0 0.0 16.28999089631971 0.0 0.0 0.0 34.63643526849801" Properties=species:S:1:pos:R:3:initial_magmoms:R:1 pbc="T T T"
Si       1.35584153       1.35184194      -1.35116809       0.00000000
Si      -1.28348910       1.36976094       1.40811043       0.00000000
Si      -1.35821133      -1.36085031      -1.35276137       0.00000000
Si       1.28787111      -1.33996653       1.44326643       0.00000000
Si      -0.66600036      -2.14604460       2.62797172       0.00000000
Si      -2.36828907      -0.31819257       2.68169286       0.00000000
Si       2.35987758       0.45322038       2.69655190       0.00000000
Si       0.40249332       2.31725250       2.77583475       0.00000000
Si      -0.00004887       2.70819621      -2.71071821       0.00000000
Si      -2.71373481       2.71125873       0.02701643       0.00000000
