10
Lattice="16.28999089631971 0.0 0.0 0.0 16.28999089631971 0.0 0.0 0.0 34.63643526849801" Properties=species:S:1:pos:R:3:initial_magmoms:R:1 pbc="T T T"
Si       1.28348910      -1.36976094      -1.40811043       0.00000000
Si       1.68598242       0.94749156       1.36772432       0.00000000
Si      -1.08479997      -1.68795351       1.27358244       0.00000000
Si      -1.43024571       1.34149779      -1.38109399       0.00000000
Si      -0.01417230       1.70605170       2.99255504       0.00000000
Si      -1.21456611      -0.29124891       3.40770759       0.00000000
Si       2.57136021      -2.70972747       0.03515600       0.00000000
Si       0.61748874      -3.51580554       1.21986130       0.00000000
Si       2.61724914       2.72911257       0.15790760       0.00000000
Si       2.63933063      -0.01791900      -2.75927852       0.00000000
