10
Lattice="16.28999089631971 0.0 0.0 0.0 16.28999089631971 0.0 0.0 0.0 34.63643526849801" Properties=species:S:1:pos:R:3:initial_magmoms:R:1 pbc="T T T"
Si      -1.35029343      -1.36187658      -1.38286045       0.00000000
Si       1.36170554       1.35819504      -1.38303363       0.00000000
Si       1.39694081      -1.22435640       1.50557741       0.00000000
Si      -1.41918384       1.37849238       1.41147016       0.00000000
Si      -2.68791420      -2.72285721      -0.00834739       0.00000000
Si       2.71419907      -2.70094716      -0.00464128       0.00000000
Si      -2.70705495       2.71845891      -0.03179627       0.00000000
Si       2.71890688       2.71476108      -0.02279079       0.00000000
Si      -2.70772284      -0.00089595      -2.74327648       0.00000000
Si       0.00750806       2.71471221      -2.74286084       0.00000000
