10
Lattice="16.28999089631971 0.0 0.0 0.0 16.28999089631971 0.0 0.0 0.0 34.63643526849801" Properties=species:S:1:pos:R:3:initial_magmoms:R:1 pbc="T T T"
Si      -1.35734796      -1.34550513      -1.37808062       0.00000000
Si       1.35975255       1.37027548      -1.37821917       0.00000000
Si      -1.41377652       1.35990549       1.38154427       0.00000000
Si       1.33555194      -1.31554782       1.53720049       0.00000000
Si       2.71869253      -2.69120574       0.00131619       0.00000000
Si      -2.71194291      -2.70316260      -0.00180110       0.00000000
Si       2.70271530       2.72107901      -0.00024246       0.00000000
Si      -2.71037907       2.73248527      -0.02234051       0.00000000
Si       0.00174303      -2.70622512      -2.73953574       0.00000000
Si      -2.71388142       0.01275507      -2.74067875       0.00000000
