10
Lattice="16.28999089631971 0.0 0.0 0.0 16.28999089631971 0.0 0.0 0.0 34.63643526849801" Properties=species:S:1:pos:R:3:initial_magmoms:R:1 pbc="T T T"
Si      -1.29660255       1.37257978      -1.40388478       0.00000000
Si      -1.85632695      -0.89560791       1.20188498       0.00000000
Si       1.41377652      -1.35990549      -1.38154427       0.00000000
Si       0.82890036       1.80156716       1.36668523       0.00000000
Si      -3.32588043       0.98636669       1.35896130       0.00000000
Si      -2.54878227       2.78776376       0.04492348       0.00000000
Si       2.72231964       2.64682268       0.12098514       0.00000000
Si      -2.65807188       0.00710244      -2.76575554       0.00000000
Si      -2.73688290      -2.69076591      -0.03176163       0.00000000
Si       2.74932846      -2.67545331       0.15565623       0.00000000
