10
Lattice="16.28999089631971 0.0 0.0 0.0 16.28999089631971 0.0 0.0 0.0 34.63643526849801" Properties=species:S:1:pos:R:3:initial_magmoms:R:1 pbc="T T T"
Si       1.70856918      -0.25480818       1.59954611       0.00000000
Si       0.58492503       0.15188796      -2.30450187       0.00000000
Si      -0.98678304       2.12904503       0.47206024       0.00000000
Si      -1.56418209      -1.80719631       0.18502794       0.00000000
Si       2.88619445       1.75048823       1.12880206       0.00000000
Si      -3.22196652       1.65995004       0.43877461       0.00000000
Si       2.72599208      -2.35216197       1.04203774       0.00000000
Si      -2.17916217      -1.99759383       2.50213748       0.00000000
Si      -3.34265913      -1.44037809      -1.38937210       0.00000000
Si      -1.22663700      -0.25286967      -3.75327550       0.00000000
