10
Lattice="16.28999089631971 0.0 0.0 0.0 16.28999089631971 0.0 0.0 0.0 34.63643526849801" Properties=species:S:1:pos:R:3:initial_magmoms:R:1 pbc="T T T"
Si       1.32229188       1.88921646      -0.34868519       0.00000000
Si       0.79658100      -1.32468651       1.77736967       0.00000000
Si      -2.21486496       0.85638159       0.13487435       0.00000000
Si       0.07581366      -1.46877156      -1.91037365       0.00000000
Si      -0.59834799      -3.19880214       1.26429987       0.00000000
Si      -1.64792572      -0.27284121      -3.14505935       0.00000000
Si      -3.41284364      -0.10782351      -1.63082283       0.00000000
Si       3.33583362       1.59830964       0.80959249       0.00000000
Si       0.14162526      -3.73539474      -0.89815790       0.00000000
Si       0.75236994       2.83512789      -2.51297869       0.00000000
