10
Lattice="16.28999089631971 0.0 0.0 0.0 16.28999089631971 0.0 0.0 0.0 34.63643526849801" Properties=species:S:1:pos:R:3:initial_magmoms:R:1 pbc="T T T"
Si      -1.98699556      -1.02156219       0.61275352       0.00000000
Si       1.74058650      -1.00753650       1.20049952       0.00000000
Si       0.53828676       2.25895059       0.39911587       0.00000000
Si       0.20196342      -0.91007343      -2.16869233       0.00000000
Si       3.57135444      -0.75412926      -0.26427615       0.00000000
Si      -1.38272778      -3.22895493       1.11415084       0.00000000
Si       2.51937882      -1.47264858      -2.34575389       0.00000000
Si       2.60965800       2.61361647      -0.79934010       0.00000000
Si      -0.23899059       2.67455736       2.75605733       0.00000000
Si      -2.98985357      -0.13033629       2.49676883       0.00000000
