10
Lattice="16.28999089631971 0.0 0.0 0.0 16.28999089631971 0.0 0.0 0.0 34.63643526849801" Properties=species:S:1:pos:R:3:initial_magmoms:R:1 pbc="T T T"
Si       1.35695700       1.34060184       1.36858677       0.00000000
Si      -1.35596494      -1.37324700       1.36820577       0.00000000
Si       1.32372540      -1.36335897      -1.43451726       0.00000000
Si      -1.39150320       1.40872662      -1.39315094       0.00000000
Si      -0.59181570      -2.25427536      -2.66395969       0.00000000
Si      -2.46820867      -0.34370271      -2.51512719       0.00000000
Si      -2.72251595       2.70076797       0.02280811       0.00000000
Si       0.00127062       2.70053991       2.72827543       0.00000000
Si       2.70642060       2.72372058      -0.01734247       0.00000000
Si       2.71482624      -0.01391166       2.72723634       0.00000000
