10
Lattice="16.28999089631971 0.0 0.0 0.0 16.28999089631971 0.0 0.0 0.0 34.63643526849801" Properties=species:S:1:pos:R:3:initial_magmoms:R:1 pbc="T T T"
Si      -1.35720135      -1.35656604      -1.36024285       0.00000000
Si       1.34648253      -1.31672070       1.41153944       0.00000000
Si       1.36163223       1.35811359      -1.36322158       0.00000000
Si      -1.31957145       1.37230218       1.41517626       0.00000000
Si       2.70488934       2.71456560       0.00252846       0.00000000
Si      -2.71139882      -0.00004887      -2.72007005       0.00000000
Si       0.00364896       2.71331127      -2.72017396       0.00000000
Si      -2.71890688      -2.71476108       0.02279079       0.00000000
Si       2.71484253      -2.71932228       0.01825341       0.00000000
Si      -2.70906121       2.72691342       0.02112824       0.00000000
