10
Lattice="16.28999089631971 0.0 0.0 0.0 16.28999089631971 0.0 0.0 0.0 34.63643526849801" Properties=species:S:1:pos:R:3:initial_magmoms:R:1 pbc="T T T"
Si      -1.35584153      -1.35184194       1.35116809       0.00000000
Si      -1.35589040       1.35635427      -1.35955012       0.00000000
Si       1.35872148      -1.35558864      -1.35989648       0.00000000
Si       1.36105910       1.37137365       1.38130181       0.00000000
Si      -2.63933063       0.01791900       2.75927852       0.00000000
Si       2.71291896      -2.71210581      -0.00006927       0.00000000
Si      -2.71405286      -2.71269225      -0.00159328       0.00000000
Si       2.71300041       2.71433754      -0.00013855       0.00000000
Si      -2.71367819       0.00021177      -2.71754159       0.00000000
Si       0.00110278      -2.71427238      -2.71726450       0.00000000
