10
Lattice="16.28999089631971 0.0 0.0 0.0 16.28999089631971 0.0 0.0 0.0 34.63643526849801" Properties=species:S:1:pos:R:3:initial_magmoms:R:1 pbc="T T T"
Si       1.74651280       0.91538397      -1.27237016       0.00000000
Si      -1.07200647      -1.79318691      -1.25328547       0.00000000
Si       1.95192970      -0.80228250       1.49653729       0.00000000
Si      -1.95738426       1.86403212       0.07928284       0.00000000
Si       0.87547021       3.09746205       1.27590308       0.00000000
Si       0.35702304       2.26999521      -2.66641819       0.00000000
Si      -2.35987758      -0.45322038      -2.69655190       0.00000000
Si      -1.27093995       0.33314679       3.54937069       0.00000000
Si       2.97715714       2.38001787       0.27570618       0.00000000
Si       0.92352571      -0.72506790       3.74066783       0.00000000
