10
Lattice="16.28999089631971 0.0 0.0 0.0 16.28999089631971 0.0 0.0 0.0 34.63643526849801" Properties=species:S:1:pos:R:3:initial_magmoms:R:1 pbc="T T T"
Si      -1.74651280      -0.91538397       1.27237016       0.00000000
Si       1.31957145      -1.37230218      -1.41517626       0.00000000
Si      -1.38948976       1.35461124      -1.39404803       0.00000000
Si       1.23064434       1.46463390       1.54807634       0.00000000
Si       0.20541690      -1.71766647       2.76890746       0.00000000
Si      -0.87104259       2.18207808       2.54827324       0.00000000
Si       2.27682072      -0.21859551       2.94160482       0.00000000
Si       2.66605398      -2.68902288      -0.00363683       0.00000000
Si       2.68741017       2.71191033       0.01433949       0.00000000
Si       2.68120368      -0.01418859      -2.77839784       0.00000000
