10
Lattice="16.28999089631971 0.0 0.0 0.0 16.28999089631971 0.0 0.0 0.0 34.63643526849801" Properties=species:S:1:pos:R:3:initial_magmoms:R:1 pbc="T T T"
Si      -1.20208797       0.40661469      -1.97479746       0.00000000
Si       1.74811248       1.54111545       0.31387555       0.00000000
Si      -0.77533884      -0.50117814       2.19813332       0.00000000
Si       0.57145320      -2.00710719      -1.18823821       0.00000000
Si      -3.09426432      -0.73917504      -1.25415139       0.00000000
Si       2.58499494      -2.29801401      -0.02996053       0.00000000
Si       0.00153126      -1.06119576      -3.35253172       0.00000000
Si       2.78513388       0.64021329       2.22036992       0.00000000
Si       2.45343690      -1.69732026       2.30716888       0.00000000
Si      -1.01636568       3.09977523       1.91972550       0.00000000
