10
Lattice="16.28999089631971 0.0 0.0 0.0 16.28999089631971 0.0 0.0 0.0 34.63643526849801" Properties=species:S:1:pos:R:3:initial_magmoms:R:1 pbc="T T T"
Si      -0.34636124      -2.29514697      -0.29063449       0.00000000
Si      -0.87408475       1.66167774      -1.41656172       0.00000000
Si      -1.18310102       0.18518472       2.03994863       0.00000000
Si       2.40450174       0.50974668      -0.03134599       0.00000000
Si       0.82297080      -0.72663174       3.01160509       0.00000000
Si       1.89583020       2.67742440       0.87876149       0.00000000
Si       0.67109587      -3.02049180       1.73234228       0.00000000
Si       0.50064057       3.53908395      -0.74090840       0.00000000
Si      -0.20455190       0.99092070      -3.54826232       0.00000000
Si       1.19966076       2.04035508       2.99331705       0.00000000
