10
Lattice="10.86 0.0 0.0 0.0 10.86 0.0 0.0 0.0 10.86" Properties=species:S:1:pos:R:3:initial_magmoms:R:1 pbc="T T T"
Si       0.30854346      -1.86047004       1.35774978       0.00000000
Si       0.09860880      -0.38125116      -2.34933294       0.00000000
Si      -2.26525482       0.61680456       1.08933402       0.00000000
Si       2.64798294       1.02434778       1.25572008       0.00000000
Si       1.66346964      -0.60447846       2.83912980       0.00000000
Si      -0.74025018       1.98215634      -2.67756558       0.00000000
Si       2.75737572      -1.73870772      -1.13034138       0.00000000
Si      -1.05153036       2.11052154       2.83912980       0.00000000
Si       1.66346964      -3.31947846       0.12412980       0.00000000
Si       0.14394930       3.45766110       1.42406094       0.00000000
