10
Lattice="10.86 0.0 0.0 0.0 10.86 0.0 0.0 0.0 10.86" Properties=species:S:1:pos:R:3:initial_magmoms:R:1 pbc="T T T"
Si       0.12010074      -1.51287402      -1.82149350       0.00000000
Si      -0.09860880       0.38125116       2.34933294       0.00000000
Si      -0.83885898       2.36340750      -0.32823264       0.00000000
Si      -1.15013916      -2.93822730      -0.24153726       0.00000000
Si      -1.15013916      -0.22322730      -2.95653726       0.00000000
Si      -2.60925618       1.08076548      -1.52089956       0.00000000
Si       2.65876692      -1.35745656       1.21899156       0.00000000
Si      -3.86513916      -0.22322730      -0.24153726       0.00000000
Si       3.12748452       1.37339904      -1.90344306       0.00000000
Si       0.20993466      -1.47921888       3.70708272       0.00000000
