10
Lattice="10.86 0.0 0.0 0.0 10.86 0.0 0.0 0.0 10.86" Properties=species:S:1:pos:R:3:initial_magmoms:R:1 pbc="T T T"
Si      -0.98451330      -1.62882624       1.58340972       0.00000000
Si       1.73048670       1.08617376       1.58340972       0.00000000
Si       1.73048670      -1.62882624      -1.13159028       0.00000000
Si      -2.64798294      -1.02434778      -1.25572008       0.00000000
Si       0.52565658       2.22350898      -2.40972540       0.00000000
Si      -2.50403364       2.43331332       0.16834086       0.00000000
Si       0.10939278      -2.76305550      -2.38606146       0.00000000
Si      -2.33943948      -2.88481782       0.10202970       0.00000000
Si      -2.34201330      -0.27132624       2.94090972       0.00000000
Si       0.37298670       2.44367376       2.94090972       0.00000000
