10
Lattice="16.28999089631971 0.0 0.0 0.0 16.28999089631971 0.0 0.0 0.0 34.28971787722196" Properties=species:S:1:pos:R:3:initial_magmoms:R:1 pbc="T T T"
Si      -1.35573525      -1.35636674      -1.35687918       0.00000000
Si      -1.35275418       1.36052451       1.35989668       0.00000000
Si       1.35920502       1.35930276      -1.35687918       0.00000000
Si       1.35878148      -1.35846679       1.36359997       0.00000000
Si      -2.71282420       0.00132438      -2.71454703       0.00000000
Si       0.00122175      -2.71338362      -2.71444416       0.00000000
Si      -2.71382115       2.71552671       0.00030861       0.00000000
Si       0.00171045       2.71625976      -2.71396411       0.00000000
Si       2.71621089      -2.71444247       0.00034290       0.00000000
Si       2.71669959       0.00133089      -2.71410127       0.00000000
