10
Lattice="16.28999089631971 0.0 0.0 0.0 16.28999089631971 0.0 0.0 0.0 34.28971787722196" Properties=species:S:1:pos:R:3:initial_magmoms:R:1 pbc="T T T"
Si       1.35742941      -1.35597568      -1.36325708       0.00000000
Si      -1.35878148       1.35846679      -1.36359997       0.00000000
Si      -1.36081773      -1.36669450       1.35876512       0.00000000
Si       1.36917450       1.38463342       1.37093798       0.00000000
Si      -2.71239903      -2.71127110      -0.00702940       0.00000000
Si       2.71707426      -2.70944662      -0.00380616       0.00000000
Si      -2.71153566       2.71899130      -0.00370329       0.00000000
Si      -0.00004887      -2.71244398      -2.72013626       0.00000000
Si       2.71311579       2.72136964      -0.00737229       0.00000000
Si      -2.71451673       0.00210005      -2.72047916       0.00000000
