10
Lattice="16.28999089631971 0.0 0.0 0.0 16.28999089631971 0.0 0.0 0.0 34.28971787722196" Properties=species:S:1:pos:R:3:initial_magmoms:R:1 pbc="T T T"
Si       2.28709971       0.21299175      -0.60987726       0.00000000
Si      -1.19091303       2.08925766       0.19318838       0.00000000
Si      -0.36124704      -1.04164776       2.17318066       0.00000000
Si      -1.29145491      -0.89487486      -1.90644080       0.00000000
Si      -3.22916670      -0.77662575      -0.42539848       0.00000000
Si       0.45585936       0.80969445       3.39495828       0.00000000
Si       0.63897525      -2.45612801      -2.57005008       0.00000000
Si       2.00508723       1.14528474      -2.81011253       0.00000000
Si      -0.25023069       2.85280254       2.24553201       0.00000000
Si      -3.32638542       1.29780801       0.74141269       0.00000000
