10
Lattice="16.28999089631971 0.0 0.0 0.0 16.28999089631971 0.0 0.0 0.0 34.28971787722196" Properties=species:S:1:pos:R:3:initial_magmoms:R:1 pbc="T T T"
Si       0.38169099      -1.45180620       1.85918954       0.00000000
Si       0.91196307       2.10329801       0.74854496       0.00000000
Si       1.54974915      -0.31528548      -1.85696071       0.00000000
Si      -2.14402464      -0.27672705      -1.24207714       0.00000000
Si       2.84239323       0.54204486       0.08493568       0.00000000
Si      -0.51929262      -1.50766461      -2.67261068       0.00000000
Si      -1.02574872       2.22154712       2.22958728       0.00000000
Si      -2.95932285       1.42190360       1.22294347       0.00000000
Si       0.11403000      -3.49779762       0.74597323       0.00000000
Si       0.41655159       3.48358229      -1.29546627       0.00000000
