10
Lattice="16.28999089631971 0.0 0.0 0.0 16.28999089631971 0.0 0.0 0.0 34.28971787722196" Properties=species:S:1:pos:R:3:initial_magmoms:R:1 pbc="T T T"
Si       1.30942278       0.82046540       1.75854916       0.00000000
Si       0.53680437       1.37761598      -1.86320144       0.00000000
Si       0.07019361      -2.23463355      -0.82237076       0.00000000
Si      -2.20874481       0.92356481       0.40647054       0.00000000
Si      -1.39676976       0.57797246      -2.86984525       0.00000000
Si      -1.77025059      -1.74254523      -2.22019189       0.00000000
Si       0.43958565       3.45204974      -0.69639027       0.00000000
Si      -1.68774174       2.50509575       2.00848706       0.00000000
Si       3.40472403       1.11259397       0.73537770       0.00000000
Si      -3.47916607      -0.91449128       1.01147866       0.00000000
