10
Lattice="16.28999089631971 0.0 0.0 0.0 16.28999089631971 0.0 0.0 0.0 34.28971787722196" Properties=species:S:1:pos:R:3:initial_magmoms:R:1 pbc="T T T"
Si      -0.31752468      -2.30677803       0.30195542       0.00000000
Si      -1.64366100       1.66617378       0.27603238       0.00000000
Si       1.66990419       0.18971334       1.65849171       0.00000000
Si       1.23802371       1.07685045      -1.74459324       0.00000000
Si      -0.61906887       2.68192044      -1.76166953       0.00000000
Si      -3.54183207       0.25593219       0.31279098       0.00000000
Si       1.77367149      -3.13132407      -0.27565520       0.00000000
Si      -0.72591498      -2.43309069       2.58654344       0.00000000
Si      -2.70094716      -1.15367409       2.16203650       0.00000000
Si       3.85576155      -0.09819612       0.74113838       0.00000000
