10
Lattice="16.28999089631971 0.0 0.0 0.0 16.28999089631971 0.0 0.0 0.0 34.28971787722196" Properties=species:S:1:pos:R:3:initial_magmoms:R:1 pbc="T T T"
Si       1.29020058      -1.32947577      -1.41311092       0.00000000
Si      -1.34425080      -1.36396170       1.34540584       0.00000000
Si       1.37148768       1.34812782       1.34612592       0.00000000
Si      -1.38339567       1.29872025      -1.40295430       0.00000000
Si       2.11978512       0.64093005      -2.61501010       0.00000000
Si      -2.22200487      -0.52201305      -2.65043243       0.00000000
Si      -0.46187037      -2.23733376      -2.74818668       0.00000000
Si       0.27230364       2.29892625      -2.74815239       0.00000000
Si      -2.70352098      -0.00767259       2.70327943       0.00000000
Si       0.01211976       2.70749574       2.70369090       0.00000000
