10
Lattice="16.28999089631971 0.0 0.0 0.0 16.28999089631971 0.0 0.0 0.0 34.28971787722196" Properties=species:S:1:pos:R:3:initial_magmoms:R:1 pbc="T T T"
Si      -1.35749457      -1.35700587       1.35677632       0.00000000
Si       1.35711990      -1.35731538      -1.35708492       0.00000000
Si       1.35803214       1.35654975       1.35804504       0.00000000
Si      -1.35801585       1.35782037      -1.35715350       0.00000000
Si       2.71438641      -2.71503801       0.00003429       0.00000000
Si      -0.00073305      -2.71513575      -2.71444416       0.00000000
Si      -2.71454931      -2.71523349       0.00013716       0.00000000
Si       0.00034209       2.71440270      -2.71550715       0.00000000
Si       2.71464705       2.71538010       0.00017145       0.00000000
Si       2.71544526       0.00039096      -2.71488993       0.00000000
