10
Lattice="16.28999089631971 0.0 0.0 0.0 16.28999089631971 0.0 0.0 0.0 34.28971787722196" Properties=species:S:1:pos:R:3:initial_magmoms:R:1 pbc="T T T"
Si       1.35754344       1.34956134       1.37202153       0.00000000
Si      -1.36102950      -1.36405944       1.37243301       0.00000000
Si       1.32077691      -1.41628518      -1.37500131       0.00000000
Si      -1.22595282       1.43255889      -1.49736424       0.00000000
Si      -2.70602964       2.69218314       0.00067208       0.00000000
Si       2.70417258      -2.71500543       0.02795299       0.00000000
Si       2.70329292       2.72041371       0.00771862       0.00000000
Si      -2.71355562      -2.71453302      -0.01314326       0.00000000
Si      -0.00179190       2.70835304       2.73188392       0.00000000
Si       2.71629234      -0.00750969       2.73164390       0.00000000
