10
Lattice="16.28999089631971 0.0 0.0 0.0 16.28999089631971 0.0 0.0 0.0 34.28971787722196" Properties=species:S:1:pos:R:3:initial_magmoms:R:1 pbc="T T T"
Si      -0.93410118      -1.69640802      -1.27915704       0.00000000
Si       1.69429032       0.87472413      -1.36596738       0.00000000
Si      -1.34816040       1.37474568       1.34753523       0.00000000
Si       1.38390066      -1.35826020       1.35479094       0.00000000
Si      -1.51920540      -0.46672479      -3.28746137       0.00000000
Si       0.71907318       0.29926359      -3.56994022       0.00000000
Si       2.65471614       2.65772979      -0.09938537       0.00000000
Si      -2.69048083      -0.00001629       2.71099462       0.00000000
Si      -2.68317966      -2.72891709      -0.03896686       0.00000000
Si       0.02306664      -2.71167087       2.71301771       0.00000000
