10
Lattice="16.28999089631971 0.0 0.0 0.0 16.28999089631971 0.0 0.0 0.0 34.28971787722196" Properties=species:S:1:pos:R:3:initial_magmoms:R:1 pbc="T T T"
Si       1.35441576      -1.35524322      -1.35855938       0.00000000
Si      -1.35773892      -1.35582966       1.35732495       0.00000000
Si       1.35671265       1.35869425       1.35657058       0.00000000
Si      -1.35681039       1.36101884      -1.35825077       0.00000000
Si       0.00022806       2.69488150      -2.72492654       0.00000000
Si       2.71461447      -2.71242828      -0.00120014       0.00000000
Si      -0.00053757      -2.71327536       2.71410127       0.00000000
Si      -2.71404432      -2.71425276      -0.00116585       0.00000000
Si       2.71463076       0.00110747       2.71430700       0.00000000
Si       2.71417464       2.71532545      -0.00113156       0.00000000
