10
Lattice="16.28999089631971 0.0 0.0 0.0 16.28999089631971 0.0 0.0 0.0 34.28971787722196" Properties=species:S:1:pos:R:3:initial_magmoms:R:1 pbc="T T T"
Si      -1.61844408      -0.24712243      -1.69998229       0.00000000
Si       1.89615600      -1.56553483      -0.00634360       0.00000000
Si      -1.59306426      -1.07131252       1.59635871       0.00000000
Si       0.81264294       2.26120513      -1.49853009       0.00000000
Si      -0.31338702      -1.63988239      -3.02198882       0.00000000
Si       0.93081060      -3.15107311      -1.48289397       0.00000000
Si      -3.45028716      -1.24007692      -0.65483111       0.00000000
Si       3.57668127      -0.42349180      -1.41211995       0.00000000
Si       2.46718566       1.26678533       2.78261216       0.00000000
Si      -0.64347129      -0.93924949       3.78555268       0.00000000
