10
Lattice="16.28999089631971 0.0 0.0 0.0 16.28999089631971 0.0 0.0 0.0 34.28971787722196" Properties=species:S:1:pos:R:3:initial_magmoms:R:1 pbc="T T T"
Si       1.32924771      -1.37915538      -1.29642638       0.00000000
Si       0.05642856       2.15503668      -0.90723786       0.00000000
Si       0.38143035      -0.21743892       2.29754954       0.00000000
Si      -2.04543756      -1.10226937      -0.41164829       0.00000000
Si       1.09859760      -3.22181081       0.20316669       0.00000000
Si      -3.66396309       0.58982832      -0.29890364       0.00000000
Si      -1.12373307       1.98643518      -2.94740864       0.00000000
Si       0.21823713       1.92883374       3.18308200       0.00000000
Si      -2.44051893      -2.52990935       1.48124806       0.00000000
Si       0.59311890      -1.17627972      -3.63059736       0.00000000
