10
Lattice="16.28999089631971 0.0 0.0 0.0 16.28999089631971 0.0 0.0 0.0 34.28971787722196" Properties=species:S:1:pos:R:3:initial_magmoms:R:1 pbc="T T T"
Si       0.52100307       1.58153094       1.60201651       0.00000000
Si      -1.27042126      -1.83805609       0.60500812       0.00000000
Si      -0.89648268       0.63788382      -2.10902457       0.00000000
Si       2.20874481      -0.92356481      -0.40647054       0.00000000
Si       0.81197505      -0.34559235      -3.27631579       0.00000000
Si      -1.61184989      -2.76875333      -1.46122285       0.00000000
Si       2.74554918       0.45405117      -2.26967198       0.00000000
Si      -0.24847137      -2.57846984       2.55431109       0.00000000
Si      -2.58132059      -0.93412073      -2.51127747       0.00000000
Si       0.43849422      -2.66611004      -2.62666244       0.00000000
