10
Lattice="16.28999089631971 0.0 0.0 0.0 16.28999089631971 0.0 0.0 0.0 34.28971787722196" Properties=species:S:1:pos:R:3:initial_magmoms:R:1 pbc="T T T"
Si      -1.35659862      -1.35682668      -1.35567904       0.00000000
Si      -1.35614250       1.35591444       1.36061677       0.00000000
Si       1.35900954       1.35799956      -1.35581620       0.00000000
Si       1.35944937      -1.35470898       1.36106253       0.00000000
Si      -2.71386513       0.00089595      -2.71279826       0.00000000
Si       0.00167787      -2.71456560      -2.71314115       0.00000000
Si      -2.71295289       2.71476108       0.00233170       0.00000000
Si       0.00109143       2.71645524      -2.71276397       0.00000000
Si       2.71655298       0.00091224      -2.71279826       0.00000000
Si       2.71199178      -0.00552231       2.71766740       0.00000000
