10
Lattice="16.28999089631971 0.0 0.0 0.0 16.28999089631971 0.0 0.0 0.0 34.28971787722196" Properties=species:S:1:pos:R:3:initial_magmoms:R:1 pbc="T T T"
Si      -1.05003711      -0.02705769       2.14214845       0.00000000
Si      -1.43035974       1.17077859      -1.50898846       0.00000000
Si       0.84613518      -1.78056216      -1.38557969       0.00000000
Si       1.56665817       2.15583489       1.64213551       0.00000000
Si       1.46313522      -2.08481049       2.06266484       0.00000000
Si       2.31518367      -0.42140601      -2.74791095       0.00000000
Si      -3.10818087       1.08177003       1.60201651       0.00000000
Si       0.40698936       1.22557815       3.46391495       0.00000000
Si      -2.64134205       2.62119132      -0.10276634       0.00000000
Si      -0.07218099       2.43571338      -2.89906011       0.00000000
