10
Lattice="16.28999089631971 0.0 0.0 0.0 16.28999089631971 0.0 0.0 0.0 34.28971787722196" Properties=species:S:1:pos:R:3:initial_magmoms:R:1 pbc="T T T"
Si      -1.73783349      -1.05849162       1.11054171       0.00000000
Si       1.72792917      -1.56843378      -0.04481669       0.00000000
Si       0.44851257       1.83174534       1.46249157       0.00000000
Si      -0.64467675       0.94706802      -2.10542414       0.00000000
Si      -1.77404616       2.53184067       1.64738184       0.00000000
Si       3.23775153      -0.25054020      -1.33075040       0.00000000
Si       1.73921814       3.22291134       0.09350811       0.00000000
Si       0.54762093       3.11927436      -1.97426590       0.00000000
Si      -2.95073802       0.62530794       2.21799735       0.00000000
Si      -2.98390446       1.38732156      -1.85716645       0.00000000
