10
Lattice="16.28999089631971 0.0 0.0 0.0 16.28999089631971 0.0 0.0 0.0 34.28971787722196" Properties=species:S:1:pos:R:3:initial_magmoms:R:1 pbc="T T T"
Si      -1.17669186      -1.90653273       0.57061551       0.00000000
Si      -0.39848598       1.35624024       1.83114054       0.00000000
Si      -0.97533117       0.66893256      -2.00612107       0.00000000
Si       2.22255873      -0.70009533      -0.18489026       0.00000000
Si       1.77404616      -2.53184067      -1.64738184       0.00000000
Si       0.63794898       2.14672878      -2.85273467       0.00000000
Si       0.03621267      -3.59033229      -0.53684012       0.00000000
Si      -0.78939711       3.48788448       0.70437978       0.00000000
Si       2.79717219      -1.06536600       2.10590420       0.00000000
Si      -3.31035606      -1.65594366      -0.37886730       0.00000000
