10
Lattice="16.28999089631971 0.0 0.0 0.0 16.28999089631971 0.0 0.0 0.0 34.28971787722196" Properties=species:S:1:pos:R:3:initial_magmoms:R:1 pbc="T T T"
Si       1.46474793      -1.40204772       1.10529538       0.00000000
Si      -2.34300699       0.13673826       0.22391198       0.00000000
Si       1.18586313       1.88843454      -0.78293757       0.00000000
Si      -0.82122777      -1.65651381      -1.47823056       0.00000000
Si       3.30136398      -1.12948344      -0.52741045       0.00000000
Si      -2.82683628      -2.27339982      -0.46918647       0.00000000
Si       3.47444523       1.18864872      -0.59959034       0.00000000
Si      -2.78800092       1.04726781      -2.31822625       0.00000000
Si       0.06742431       3.78980334       0.36192817       0.00000000
Si      -1.57509639      -0.63653175      -3.42568189       0.00000000
