10
Lattice="16.28999089631971 0.0 0.0 0.0 16.28999089631971 0.0 0.0 0.0 34.28971787722196" Properties=species:S:1:pos:R:3:initial_magmoms:R:1 pbc="T T T"
Si      -1.28451537       1.37052657       1.41039518       0.00000000
Si       1.45297026      -1.35062019       1.39282512       0.00000000
Si      -1.01133207      -1.76596632      -1.31752284       0.00000000
Si       1.62900000       1.20042639      -1.51623186       0.00000000
Si       0.83614941      -3.42396252      -1.18438055       0.00000000
Si      -2.63036259       2.73818025      -0.03965608       0.00000000
Si      -2.63026485      -0.00032580       2.77469809       0.00000000
Si      -2.66703138      -2.76617232       0.02767525       0.00000000
Si       0.08785197      -2.71676475       2.77675547       0.00000000
Si       0.08571798       2.71787477       2.77723553       0.00000000
