10
Lattice="16.28999089631971 0.0 0.0 0.0 16.28999089631971 0.0 0.0 0.0 34.28971787722196" Properties=species:S:1:pos:R:3:initial_magmoms:R:1 pbc="T T T"
Si       1.34397387       1.35223290       1.38410181       0.00000000
Si      -1.36511829      -1.36614456       1.38393036       0.00000000
Si      -1.45297026       1.35062019      -1.39282512       0.00000000
Si       1.41025788      -1.40095629      -1.49211791       0.00000000
Si      -0.61682085      -2.07334233      -2.57720566       0.00000000
Si      -2.46430233      -0.41534613      -2.71034795       0.00000000
Si       2.69721675       2.70621742       0.01270778       0.00000000
Si       2.69601129      -2.73359232       0.01738490       0.00000000
Si       2.70417258      -0.00495216       2.74146105       0.00000000
Si      -0.01044189       2.70747612       2.74266119       0.00000000
