10
Lattice="16.28999089631971 0.0 0.0 0.0 16.28999089631971 0.0 0.0 0.0 34.28971787722196" Properties=species:S:1:pos:R:3:initial_magmoms:R:1 pbc="T T T"
Si       1.33364601      -1.36565586       1.31940050       0.00000000
Si      -1.34232858      -1.35941679      -1.36469724       0.00000000
Si       1.37906253       1.35469269      -1.36013671       0.00000000
Si      -1.44296820       1.17038763       1.53995209       0.00000000
Si       2.39440194       0.23177412       2.62937133       0.00000000
Si      -2.68716582       2.68157835       0.00085724       0.00000000
Si      -2.70444951      -2.70607851       0.01937370       0.00000000
Si      -2.69495244      -0.00636939      -2.72445677       0.00000000
Si       2.73070899      -2.70133812      -0.01663052       0.00000000
Si       0.01816335       2.70876636      -2.72390813       0.00000000
