10
Lattice="16.28999089631971 0.0 0.0 0.0 16.28999089631971 0.0 0.0 0.0 34.28971787722196" Properties=species:S:1:pos:R:3:initial_magmoms:R:1 pbc="T T T"
Si       0.69260193      -1.04883165       1.94830857       0.00000000
Si      -1.56431241       1.70096922       0.46322006       0.00000000
Si       1.97480412       1.00906776      -0.81486131       0.00000000
Si      -0.81186102      -1.56877587      -1.57938529       0.00000000
Si      -2.46715308      -0.07727976      -2.36640333       0.00000000
Si      -0.27166833       2.55829956       2.40511645       0.00000000
Si      -1.16923104       3.12860920      -1.42967630       0.00000000
Si      -3.63335418       0.50859009      -0.35242992       0.00000000
Si       2.37632004      -2.60812674       1.17939551       0.00000000
Si       0.74559330       0.69397029       3.65991508       0.00000000
