10
Lattice="16.28999089631971 0.0 0.0 0.0 16.28999089631971 0.0 0.0 0.0 34.28971787722196" Properties=species:S:1:pos:R:3:initial_magmoms:R:1 pbc="T T T"
Si      -1.35324288      -1.35398452       1.37139403       0.00000000
Si       1.36555812       1.35861066       1.36618199       0.00000000
Si       1.25120232      -1.46459362      -1.39606892       0.00000000
Si      -1.31525460       1.38502490      -1.44384482       0.00000000
Si       2.52076347       0.10125414      -2.62884395       0.00000000
Si      -2.69721675      -2.70621742      -0.01270778       0.00000000
Si      -2.70743058       2.69614021       0.00502688       0.00000000
Si       2.71819827      -2.70190057       0.00977600       0.00000000
Si      -2.70765864       0.00125871       2.72995341       0.00000000
Si       0.00695583      -2.71116958       2.72875327       0.00000000
