10
Lattice="16.28999089631971 0.0 0.0 0.0 16.28999089631971 0.0 0.0 0.0 34.28971787722196" Properties=species:S:1:pos:R:3:initial_magmoms:R:1 pbc="T T T"
Si       1.01160900       1.73851604      -1.29419553       0.00000000
Si       1.31525460      -1.38502490       1.44384482       0.00000000
Si      -1.39217598       1.31111531       1.44887169       0.00000000
Si      -1.20593241      -1.54019574      -1.47791994       0.00000000
Si      -0.90582174       0.11344356      -3.27737676       0.00000000
Si      -2.64360636       2.67264980       0.01274550       0.00000000
Si       2.56645692      -2.84961852       0.04777589       0.00000000
Si      -0.70346736       3.54776489      -1.36963295       0.00000000
Si       2.68081272      -0.02641424       2.81002681       0.00000000
Si      -0.03562623       2.68903754       2.81170700       0.00000000
