10
Lattice="16.28999089631971 0.0 0.0 0.0 16.28999089631971 0.0 0.0 0.0 34.28971787722196" Properties=species:S:1:pos:R:3:initial_magmoms:R:1 pbc="T T T"
Si      -1.35408996      -1.35114147      -1.39984422       0.00000000
Si       1.35903750       1.36233270      -1.40142155       0.00000000
Si      -1.51009929       1.35804843       1.46941810       0.00000000
Si       1.30533399      -1.57025826       1.55407946       0.00000000
Si       2.70574686       2.72010420      -0.00720084       0.00000000
Si      -2.71748151       2.71282257      -0.04663404       0.00000000
Si      -2.71992501      -2.71783989      -0.00654934       0.00000000
Si       2.72391021      -2.72727995      -0.01680197       0.00000000
Si       2.33316524      -0.04370607       3.07606373       0.00000000
Si       0.00110772      -2.71139719      -2.76316988       0.00000000
