10
Lattice="16.28999089631971 0.0 0.0 0.0 16.28999089631971 0.0 0.0 0.0 34.28971787722196" Properties=species:S:1:pos:R:3:initial_magmoms:R:1 pbc="T T T"
Si      -1.47637899       1.23556392      -1.32433822       0.00000000
Si      -1.13678136      -1.31036434       1.61031463       0.00000000
Si       1.31887098      -1.69436200      -1.04768863       0.00000000
Si      -0.85937895       0.93131559       2.12390631       0.00000000
Si      -0.00733050       2.59472007      -2.68666948       0.00000000
Si       2.05413642      -2.98627370       0.98147514       0.00000000
Si      -2.32251417       3.01612608       0.06124147       0.00000000
Si       2.80810278      -0.33358662      -2.60200812       0.00000000
Si      -2.79132408      -0.31594455      -2.67082762       0.00000000
Si      -0.02728575      -3.00064148      -2.58441748       0.00000000
