10
Lattice="16.28999089631971 0.0 0.0 0.0 16.28999089631971 0.0 0.0 0.0 34.28971787722196" Properties=species:S:1:pos:R:3:initial_magmoms:R:1 pbc="T T T"
Si       1.64366100      -1.66617378      -0.27603238       0.00000000
Si      -1.89817107      -1.41024159       0.03675860       0.00000000
Si      -0.15141555       0.91241919       2.18710230       0.00000000
Si       1.02459213       1.01574666      -2.03770191       0.00000000
Si      -1.05728616      -2.81984787       1.88600412       0.00000000
Si       2.88168471      -0.58932333      -2.02062562       0.00000000
Si      -0.48733164       3.21229026      -1.70574297       0.00000000
Si      -0.64529577      -1.10734533       3.44196951       0.00000000
Si      -2.04370430       2.38363425       2.02467181       0.00000000
Si       3.31356519      -1.47646044       1.38245933       0.00000000
