10
Lattice="16.28999089631971 0.0 0.0 0.0 16.28999089631971 0.0 0.0 0.0 34.28971787722196" Properties=species:S:1:pos:R:3:initial_magmoms:R:1 pbc="T T T"
Si       1.35723393       1.35741312       1.35660487       0.00000000
Si      -1.35734796       1.35733167      -1.35732495       0.00000000
Si      -1.35819504      -1.35767376       1.35629626       0.00000000
Si       1.35764118      -1.35741312      -1.35780501       0.00000000
Si       0.00099369       2.71239903       2.71609007       0.00000000
Si      -0.00011403       2.71414206      -2.71516425       0.00000000
Si      -2.71489140       2.71441899      -0.00034290       0.00000000
Si       2.71478993       2.71466334      -0.00027432       0.00000000
Si       2.71480535      -2.71510317       0.00024003       0.00000000
Si       2.71581553       0.00224802      -2.71451274       0.00000000
