10
Lattice="16.28999089631971 0.0 0.0 0.0 16.28999089631971 0.0 0.0 0.0 34.28971787722196" Properties=species:S:1:pos:R:3:initial_magmoms:R:1 pbc="T T T"
Si      -1.35754344       1.35708732       1.35698205       0.00000000
Si       1.35723393       1.35681039      -1.35783930       0.00000000
Si       1.35734796      -1.35733167       1.35732495       0.00000000
Si      -1.35808101      -1.35599589      -1.35852509       0.00000000
Si       2.71262709      -0.00153126      -2.71365550       0.00000000
Si       2.71458189       0.00008145       2.71392982       0.00000000
Si      -0.00084708      -2.71500543       2.71362121       0.00000000
Si      -2.71655298      -0.00091224       2.71279826       0.00000000
Si       2.71484253       2.71484253       0.00013716       0.00000000
Si       2.71498914      -2.71474479      -0.00048006       0.00000000
