10
Lattice="16.28999089631971 0.0 0.0 0.0 16.28999089631971 0.0 0.0 0.0 34.28971787722196" Properties=species:S:1:pos:R:3:initial_magmoms:R:1 pbc="T T T"
Si      -1.35710361      -1.35752715      -1.35612481       0.00000000
Si       1.35819504       1.35767376      -1.35629626       0.00000000
Si      -1.35625653       1.35938421       1.36023958       0.00000000
Si       1.35967743      -1.35539316       1.36363426       0.00000000
Si      -0.00371412       2.70857088       2.71684445       0.00000000
Si      -2.71402803      -0.00047241      -2.71396411       0.00000000
Si       0.00084708       2.71500543      -2.71362121       0.00000000
Si       0.00004887      -2.71516833      -2.71389553       0.00000000
Si      -2.71570590       2.71409319      -0.00082295       0.00000000
Si       2.71583622       0.00026064      -2.71410127       0.00000000
