10
Lattice="16.28999089631971 0.0 0.0 0.0 16.28999089631971 0.0 0.0 0.0 34.28971787722196" Properties=species:S:1:pos:R:3:initial_magmoms:R:1 pbc="T T T"
Si      -1.68360408      -1.64652804       0.29194282       0.00000000
Si       2.05318738      -1.13016762      -0.60823136       0.00000000
Si       0.19947105       1.21381677       2.10185801       0.00000000
Si      -0.60963696       1.56357936      -2.76364994       0.00000000
Si       1.90765415       2.66370822       1.37968186       0.00000000
Si      -0.77198310      -3.24070002       1.73903830       0.00000000
Si      -3.46867857      -0.50797107       1.36462866       0.00000000
Si       1.12408723      -0.45559872       3.59610188       0.00000000
Si      -2.91595887      -2.17732140      -1.60921736       0.00000000
Si       3.95135846       0.28007397      -0.64498995       0.00000000
