10
Lattice="16.28999089631971 0.0 0.0 0.0 16.28999089631971 0.0 0.0 0.0 34.28971787722196" Properties=species:S:1:pos:R:3:initial_magmoms:R:1 pbc="T T T"
Si      -1.33423245       1.38419388       1.35154713       0.00000000
Si       1.38437307      -1.31694876       1.36935036       0.00000000
Si      -1.44954936      -1.24251975      -1.42230541       0.00000000
Si       0.83163708       1.80977013      -1.31719841       0.00000000
Si       1.10872998       0.32711949      -3.12876847       0.00000000
Si       0.39250755      -2.02799097      -2.66328529       0.00000000
Si      -2.56661982      -2.61213408       0.06369319       0.00000000
Si       2.68379609      -2.63777454      -0.03514355       0.00000000
Si      -2.61998586       2.71682991      -0.15795567       0.00000000
Si       0.02945232      -2.67739182       2.72001282       0.00000000
