10
Lattice="16.28999089631971 0.0 0.0 0.0 16.28999089631971 0.0 0.0 0.0 34.28971787722196" Properties=species:S:1:pos:R:3:initial_magmoms:R:1 pbc="T T T"
Si      -1.34974053      -1.33973847       1.36774560       0.00000000
Si       1.33423245      -1.38419388      -1.35154713       0.00000000
Si       1.36616085       1.37011932       1.36507100       0.00000000
Si      -1.28575341       1.33263603      -1.50950280       0.00000000
Si       2.16586953       0.42557625      -2.66874555       0.00000000
Si       0.55397403       2.24114562      -2.89832429       0.00000000
Si      -0.11531691      -2.62671363      -2.77385254       0.00000000
Si      -2.71632492      -2.69808012      -0.00673793       0.00000000
Si       2.71860552      -2.70114264       0.01780323       0.00000000
Si       0.00829161      -2.70324405       2.72428189       0.00000000
