10
Lattice="16.28999089631971 0.0 0.0 0.0 16.28999089631971 0.0 0.0 0.0 34.28971787722196" Properties=species:S:1:pos:R:3:initial_magmoms:R:1 pbc="T T T"
Si       1.35553872      -1.35876519       1.35921089       0.00000000
Si      -1.35799956       1.35852084       1.35900515       0.00000000
Si       1.35324288       1.36778985      -1.35997212       0.00000000
Si      -1.36616085      -1.37011932      -1.36507100       0.00000000
Si      -0.11375307       2.60509680      -2.76581705       0.00000000
Si      -2.71590138      -2.70985779       0.00267460       0.00000000
Si       2.71518855      -2.71349046      -0.00226312       0.00000000
Si       2.71436427       2.71500543       0.00260602       0.00000000
Si      -0.00016290       2.71459818       2.71653584       0.00000000
Si       2.71433658      -0.00013032       2.71691302       0.00000000
