10
Lattice="16.28999089631971 0.0 0.0 0.0 16.28999089631971 0.0 0.0 0.0 34.28971787722196" Properties=species:S:1:pos:R:3:initial_magmoms:R:1 pbc="T T T"
Si      -1.35606105      -1.35690813      -1.35893657       0.00000000
Si       1.35982404      -1.35892809       1.35749640       0.00000000
Si       1.35900954       1.35856971      -1.35921089       0.00000000
Si      -1.36088289       1.36203948       1.35742782       0.00000000
Si       2.71215468       0.02011815       2.70549454       0.00000000
Si      -2.71350675       2.71508688      -0.00233170       0.00000000
Si       2.71632492       2.71324611      -0.00315466       0.00000000
Si      -2.71397916       0.00154755      -2.71588433       0.00000000
Si       0.00148239      -2.71399545      -2.71591862       0.00000000
Si       2.71606428      -2.71391400      -0.00198880       0.00000000
