10
Lattice="16.28999089631971 0.0 0.0 0.0 16.28999089631971 0.0 0.0 0.0 34.28971787722196" Properties=species:S:1:pos:R:3:initial_magmoms:R:1 pbc="T T T"
Si       1.54424869      -1.62877194      -0.60514528       0.00000000
Si      -1.15724160      -0.46027395       1.97570607       0.00000000
Si       1.38331163       1.84313205       0.41260841       0.00000000
Si      -0.92264931       0.55558674      -2.08917081       0.00000000
Si       0.81920781      -0.23767110       3.46082887       0.00000000
Si       2.51890219       0.96036066       2.35368184       0.00000000
Si       0.93877641      -2.08370277      -2.80191728       0.00000000
Si      -1.33032285      -2.77840611       2.04788597       0.00000000
Si       3.49432622      -0.50450130      -1.24375734       0.00000000
Si       0.77942763       1.57020939      -3.32802472       0.00000000
