10
Lattice="16.28999089631971 0.0 0.0 0.0 16.28999089631971 0.0 0.0 0.0 34.28971787722196" Properties=species:S:1:pos:R:3:initial_magmoms:R:1 pbc="T T T"
Si      -1.06075593      -1.59742998      -1.30997082       0.00000000
Si       0.81226827      -0.56086470       2.11039616       0.00000000
Si       1.70756328       1.03716801      -1.24296868       0.00000000
Si       2.04135596       1.51726689       2.42304998       0.00000000
Si      -2.39440194      -0.23177412      -2.62937133       0.00000000
Si       0.33557400       2.47744836      -2.60173380       0.00000000
Si       2.68566944      -2.48450193       0.74415587       0.00000000
Si      -0.96071904      -0.40389426       3.60522295       0.00000000
Si      -1.86015510      -3.27202569       0.11236747       0.00000000
Si      -2.87202474       2.52415179       0.38713113       0.00000000
