10
Lattice="16.28999089631971 0.0 0.0 0.0 16.28999089631971 0.0 0.0 0.0 34.28971787722196" Properties=species:S:1:pos:R:3:initial_magmoms:R:1 pbc="T T T"
Si      -0.82249676      -1.58713470      -1.47809340       0.00000000
Si       2.22413560      -0.12618234      -0.82782283       0.00000000
Si      -0.70464513       2.03941026      -1.00815256       0.00000000
Si       0.24974688      -0.68999553       2.35169304       0.00000000
Si       2.76600616       2.07438489      -0.22744383       0.00000000
Si      -0.22398750      -0.41811543      -3.49045520       0.00000000
Si       2.04212743       0.78428205       3.01554234       0.00000000
Si       1.24543240       3.16368090      -1.64676462       0.00000000
Si      -0.03839390      -3.69973593      -0.80718041       0.00000000
Si      -1.31011740       1.58447943      -3.20492456       0.00000000
