10
Lattice="16.28999089631971 0.0 0.0 0.0 16.28999089631971 0.0 0.0 0.0 34.28971787722196" Properties=species:S:1:pos:R:3:initial_magmoms:R:1 pbc="T T T"
Si      -1.46880414       1.36720867      -1.24811214       0.00000000
Si       0.64534464      -1.80323784      -1.39247193       0.00000000
Si       1.79460414       1.51297205       0.38863988       0.00000000
Si      -0.85309101      -0.75886965       2.15641298       0.00000000
Si      -1.74879666      -2.89769778       1.48532854       0.00000000
Si      -1.84806792       3.20328908       0.16181327       0.00000000
Si       2.43488489      -0.92119950      -2.70683184       0.00000000
Si       1.76036256      -3.32343693       0.02472290       0.00000000
Si      -1.40872662      -2.58577686      -2.42977077       0.00000000
Si       1.50659694       2.45642190       2.54632158       0.00000000
