10
Lattice="16.28999089631971 0.0 0.0 0.0 16.28999089631971 0.0 0.0 0.0 34.28971787722196" Properties=species:S:1:pos:R:3:initial_magmoms:R:1 pbc="T T T"
Si      -0.60547228      -0.45493083      -2.19677200       0.00000000
Si      -1.54424869       1.62877194       0.60514528       0.00000000
Si       1.95007753       1.12427064      -0.63861206       0.00000000
Si       0.70464513      -2.03941026       1.00815256       0.00000000
Si       0.48065763      -2.45752569      -2.48230264       0.00000000
Si       3.47065129       0.03497463       0.78070873       0.00000000
Si      -2.46689800       2.18435868      -1.48402553       0.00000000
Si      -0.16093705       3.47190399       1.01775369       0.00000000
Si       2.92878073      -2.16559260       0.18032973       0.00000000
Si      -0.11785163      -3.62654496      -0.46994085       0.00000000
