10
Lattice="16.28999089631971 0.0 0.0 0.0 16.28999089631971 0.0 0.0 0.0 34.28971787722196" Properties=species:S:1:pos:R:3:initial_magmoms:R:1 pbc="T T T"
Si      -1.35539305       1.35705276       1.35732495       0.00000000
Si      -1.36112139      -1.34721558      -1.36257814       0.00000000
Si       1.35682342      -1.35697329       1.35756498       0.00000000
Si       1.36664629       1.34138376      -1.37453840       0.00000000
Si       2.71164643      -2.71485882      -0.00277747       0.00000000
Si      -2.71376154       2.71329565      -0.00617215       0.00000000
Si      -2.71452717      -0.00040725       2.71392982       0.00000000
Si       0.00071187       2.71465912       2.71396411       0.00000000
Si       2.71475782      -0.00004887       2.71406698       0.00000000
Si      -2.71436427      -2.71500543      -0.00260602       0.00000000
