10
Lattice="16.28999089631971 0.0 0.0 0.0 16.28999089631971 0.0 0.0 0.0 34.28971787722196" Properties=species:S:1:pos:R:3:initial_magmoms:R:1 pbc="T T T"
Si      -1.35607866      -1.35509994      -1.35811361       0.00000000
Si       1.36120054      -1.35365013       1.35554188       0.00000000
Si       1.35908284       1.35972101      -1.35790788       0.00000000
Si      -1.35924891       1.36301718       1.36161117       0.00000000
Si       0.00125433      -2.71238274      -2.71523283       0.00000000
Si       2.71442713      -2.71324611      -0.00044577       0.00000000
Si      -2.71334289      -2.71518462      -0.00233170       0.00000000
Si      -2.71324515       0.00234576      -2.71561001       0.00000000
Si       2.71481810       2.71608776      -0.00102869       0.00000000
Si      -2.71415739       2.71691040      -0.00116585       0.00000000
