10
Lattice="16.28999089631971 0.0 0.0 0.0 16.28999089631971 0.0 0.0 0.0 34.69518985606464" Properties=species:S:1:pos:R:3:initial_magmoms:R:1 pbc="T T T"
Si      -2.18036600       0.61659279       0.26892257       0.00000000
Si       0.88218495      -1.04878278       1.92221868       0.00000000
Si       0.05510907      -1.95576111      -1.36372989       0.00000000
Si       0.85173894       2.11905207      -0.75881892       0.00000000
Si       1.43062038      -2.86171317       0.47480394       0.00000000
Si      -2.64596841       1.48252032      -1.86785128       0.00000000
Si      -2.10086591       2.31425514       1.94879521       0.00000000
Si       0.10687869      -0.98811882      -3.58984391       0.00000000
Si      -3.41618309      -1.25600787       1.01792274       0.00000000
Si      -1.02141558       3.23540970      -1.69149554       0.00000000
