10
Lattice="16.28999089631971 0.0 0.0 0.0 16.28999089631971 0.0 0.0 0.0 34.69518985606464" Properties=species:S:1:pos:R:3:initial_magmoms:R:1 pbc="T T T"
Si       1.35625653       1.35597960       1.35734598       0.00000000
Si      -1.35773892       1.35752715      -1.35751945       0.00000000
Si       1.35821133      -1.35828463      -1.35769293       0.00000000
Si      -1.36045935      -1.36104742       1.35696433       0.00000000
Si      -0.00091224      -2.71086280       2.71493482       0.00000000
Si       2.71406061      -0.00259011      -2.71396335       0.00000000
Si      -2.71322982       2.71497285      -0.00045104       0.00000000
Si      -0.00136836       2.71352304      -2.71562872       0.00000000
Si       2.71539639       2.71453302       0.00020817       0.00000000
Si       2.71479366      -2.71516713      -0.00034695       0.00000000
