10
Lattice="16.28999089631971 0.0 0.0 0.0 16.28999089631971 0.0 0.0 0.0 34.69518985606464" Properties=species:S:1:pos:R:3:initial_magmoms:R:1 pbc="T T T"
Si       1.92034665      -0.39256294      -1.35696433       0.00000000
Si      -1.73283246       1.22177443      -1.10556284       0.00000000
Si      -0.81287100      -2.16466311       0.61681143       0.00000000
Si       0.79190577       1.48300087       1.71765572       0.00000000
Si       0.91061100       3.59545549       0.49735582       0.00000000
Si      -1.22142420       3.52325821      -0.51838112       0.00000000
Si      -0.91142550       1.34179915       3.44773233       0.00000000
Si      -1.46945574       0.93355546      -3.44724660       0.00000000
Si       0.97792128      -3.37745361       1.62227859       0.00000000
Si       3.50010198       1.39819513      -1.20989134       0.00000000
