10
Lattice="16.28999089631971 0.0 0.0 0.0 16.28999089631971 0.0 0.0 0.0 34.69518985606464" Properties=species:S:1:pos:R:3:initial_magmoms:R:1 pbc="T T T"
Si      -1.33758819      -1.35035955       1.38172977       0.00000000
Si       1.37468052       1.36684503       1.38384618       0.00000000
Si       1.37733579      -1.42591257      -1.41854833       0.00000000
Si      -1.50931737       1.25924958      -1.45280984       0.00000000
Si       0.20500965       2.19848211      -2.85352973       0.00000000
Si      -2.68794774       2.71479366       0.02957767       0.00000000
Si      -2.70233181      -2.70982521      -0.01484608       0.00000000
Si       2.71112841       2.71334385       0.00712293       0.00000000
Si       2.72417670      -2.71059084       0.02648632       0.00000000
Si      -2.70171279       0.00783549       2.74271874       0.00000000
