10
Lattice="16.28999089631971 0.0 0.0 0.0 16.28999089631971 0.0 0.0 0.0 34.69518985606464" Properties=species:S:1:pos:R:3:initial_magmoms:R:1 pbc="T T T"
Si      -0.60015618       2.13310708       0.84795091       0.00000000
Si      -2.12479267      -1.07541677      -0.16612066       0.00000000
Si       0.93302604      -0.64528274       2.11800374       0.00000000
Si       1.37352393       0.16268497      -2.28676124       0.00000000
Si      -2.01545093       1.05187462       2.53306253       0.00000000
Si      -1.39451360      -3.34879461      -0.20300167       0.00000000
Si      -3.13112438       0.12448166      -1.94886460       0.00000000
Si       1.41029046       2.99782915       1.73229710       0.00000000
Si      -0.83520459      -0.66636037       3.64920741       0.00000000
Si       2.25807093       1.11507982       2.86419361       0.00000000
