10
Lattice="16.28999089631971 0.0 0.0 0.0 16.28999089631971 0.0 0.0 0.0 34.69518985606464" Properties=species:S:1:pos:R:3:initial_magmoms:R:1 pbc="T T T"
Si       1.00703151       2.04160941       0.65726604       0.00000000
Si      -1.66291578      -0.58065705       1.61086387       0.00000000
Si       1.76208930      -1.63357749       0.01800681       0.00000000
Si      -1.35376416       0.55237761      -1.98682116       0.00000000
Si      -3.40589691      -1.34433225       0.18624388       0.00000000
Si      -0.75232107       3.59403012       0.68415483       0.00000000
Si      -3.58251309       0.51596946      -1.22716955       0.00000000
Si       2.42290944       2.84076423      -1.09664617       0.00000000
Si       3.78577971      -0.51061005      -0.81852938       0.00000000
Si       1.15413021      -3.44220732      -1.56843163       0.00000000
