10
Lattice="16.28999089631971 0.0 0.0 0.0 16.28999089631971 0.0 0.0 0.0 34.69518985606464" Properties=species:S:1:pos:R:3:initial_magmoms:R:1 pbc="T T T"
Si       0.07695396      -1.96426449       1.30561542       0.00000000
Si      -1.74298113      -0.76367520      -1.42461999       0.00000000
Si       1.66291578       0.58065705      -1.61086387       0.00000000
Si      -0.28134459       1.73281617       1.71880067       0.00000000
Si      -1.91959731       1.09662651      -2.83803342       0.00000000
Si      -1.71851355      -1.55299086       2.79015403       0.00000000
Si      -0.99491175       3.52606824       0.32488594       0.00000000
Si       2.20898916      -1.89206721       2.32135236       0.00000000
Si       0.30915162       1.13303466      -3.59768503       0.00000000
Si      -3.76147503      -0.71302959      -0.14544232       0.00000000
