10
Lattice="16.28999089631971 0.0 0.0 0.0 16.28999089631971 0.0 0.0 0.0 34.69518985606464" Properties=species:S:1:pos:R:3:initial_magmoms:R:1 pbc="T T T"
Si      -2.13203520      -0.07219728      -1.01573695       0.00000000
Si       0.57397815       2.07640485       1.02711697       0.00000000
Si       1.79154162       0.03119535      -1.65183891       0.00000000
Si      -0.11870523      -2.11245462       1.22029990       0.00000000
Si       1.50573357       1.32185205       3.01348709       0.00000000
Si      -2.20898916       1.89206721      -2.32135236       0.00000000
Si      -0.91061100      -3.59545549      -0.49735582       0.00000000
Si       2.58949098      -2.19726036      -1.70724716       0.00000000
Si       2.07546003      -2.55502134       1.98758445       0.00000000
Si      -2.64344346      -2.37368106      -1.60291867       0.00000000
