10
Lattice="16.28999089631971 0.0 0.0 0.0 16.28999089631971 0.0 0.0 0.0 34.69518985606464" Properties=species:S:1:pos:R:3:initial_magmoms:R:1 pbc="T T T"
Si       1.35550719       1.35641943      -1.35713780       0.00000000
Si       1.35793440      -1.35749457       1.35575000       0.00000000
Si      -1.35796698       1.35790182       1.35720720       0.00000000
Si      -1.35791811      -1.35770634      -1.35751945       0.00000000
Si       0.00001629      -2.71210581       2.71257554       0.00000000
Si       2.71480995      -0.00260640       2.71118774       0.00000000
Si      -0.00027693      -2.71454931      -2.71476134       0.00000000
Si      -2.71449067      -2.71494027      -0.00038165       0.00000000
Si       2.71489140      -2.71458189      -0.00041634       0.00000000
Si       2.71484253       2.71515204      -0.00017348       0.00000000
