10
Lattice="16.28999089631971 0.0 0.0 0.0 16.28999089631971 0.0 0.0 0.0 34.69518985606464" Properties=species:S:1:pos:R:3:initial_magmoms:R:1 pbc="T T T"
Si      -1.35034326       1.34886087      -1.35460505       0.00000000
Si       1.36052451       1.32880788       1.36754637       0.00000000
Si       1.36300059      -1.36640520      -1.35099675       0.00000000
Si      -1.34306163      -1.35412254       1.38472050       0.00000000
Si       0.54191943      -2.18703024       2.64932618       0.00000000
Si       2.20463973      -0.41912541       2.73498865       0.00000000
Si      -0.10321344       2.53263888       2.77457588       0.00000000
Si      -2.70197343       2.70844056       0.00818807       0.00000000
Si      -2.70721881      -0.00602730      -2.71004279       0.00000000
Si       0.00627165       2.70914103      -2.70945298       0.00000000
