10
Lattice="16.28999089631971 0.0 0.0 0.0 16.28999089631971 0.0 0.0 0.0 34.69518985606464" Properties=species:S:1:pos:R:3:initial_magmoms:R:1 pbc="T T T"
Si       1.36000323       1.34042265       1.36737289       0.00000000
Si       1.35163017      -1.35957969      -1.36279312       0.00000000
Si      -1.36477620       1.35780408      -1.35831744       0.00000000
Si      -1.35907470      -1.38333051       1.36255026       0.00000000
Si      -0.36517293       2.32821567       2.66736769       0.00000000
Si       2.59875999      -0.17580168       2.76638781       0.00000000
Si       2.70197343      -2.70844056      -0.00818807       0.00000000
Si       2.70824508       0.00070047      -2.71764104       0.00000000
Si       2.71041165       2.71963179      -0.00128372       0.00000000
Si      -0.00524538      -2.71446786      -2.71823086       0.00000000
