10
Lattice="16.28999089631971 0.0 0.0 0.0 16.28999089631971 0.0 0.0 0.0 34.69518985606464" Properties=species:S:1:pos:R:3:initial_magmoms:R:1 pbc="T T T"
Si       0.55482111       2.27292741      -0.25677924       0.00000000
Si       0.83274480      -1.55561355      -1.58564045       0.00000000
Si       0.78819165      -0.54773496       2.18715130       0.00000000
Si      -2.40218856      -0.17857098       0.25063819       0.00000000
Si      -1.02535776       3.09391083       1.29097404       0.00000000
Si       0.18674856      -3.58938747      -0.48382469       0.00000000
Si       2.45032551       2.52876186       1.07888223       0.00000000
Si       1.52013393       1.52762733       2.98881880       0.00000000
Si      -2.61750978      -1.94398344       1.82423941       0.00000000
Si      -3.06825408       2.08446840       0.61858089       0.00000000
