10
Lattice="16.28999089631971 0.0 0.0 0.0 16.28999089631971 0.0 0.0 0.0 34.69518985606464" Properties=species:S:1:pos:R:3:initial_magmoms:R:1 pbc="T T T"
Si      -0.83274480       1.55561355       1.58564045       0.00000000
Si       2.29552164      -0.58689612      -0.14807915       0.00000000
Si      -0.64599624      -2.03377392       1.10181576       0.00000000
Si      -0.58428972       1.04282064      -2.45690655       0.00000000
Si      -0.26119386      -3.58697655      -0.62798329       0.00000000
Si       2.10386979      -2.94536232      -0.72922391       0.00000000
Si       3.13067736       0.25461270       1.99199074       0.00000000
Si      -0.04455315       1.00787859       3.77279175       0.00000000
Si      -3.23493336       1.37704257       1.83627864       0.00000000
Si      -2.87474517      -2.07018207       1.86146737       0.00000000
