10
Lattice="16.28999089631971 0.0 0.0 0.0 16.28999089631971 0.0 0.0 0.0 34.69518985606464" Properties=species:S:1:pos:R:3:initial_magmoms:R:1 pbc="T T T"
Si      -0.71356716       1.79325207      -1.39391473       0.00000000
Si      -1.38463371      -0.94192038       1.71671895       0.00000000
Si       2.06625618       0.56395980       1.12239002       0.00000000
Si       0.28134459      -1.73281617      -1.71880067       0.00000000
Si       0.35829855      -3.69708066      -0.41318525       0.00000000
Si      -3.12522021       0.90295470       1.84977508       0.00000000
Si      -1.43716896      -3.28580703       1.07135337       0.00000000
Si      -1.60914249       2.84276790       1.85747742       0.00000000
Si       1.19193930       2.44187100      -2.64550970       0.00000000
Si       3.06431190      -1.54847853       1.62966867       0.00000000
