10
Lattice="16.28999089631971 0.0 0.0 0.0 16.28999089631971 0.0 0.0 0.0 34.69518985606464" Properties=species:S:1:pos:R:3:initial_magmoms:R:1 pbc="T T T"
Si       2.09982987      -0.79179174      -0.75850666       0.00000000
Si      -0.16179228       1.96046892       1.35984403       0.00000000
Si      -1.00393641       0.04365720      -2.22167303       0.00000000
Si      -2.20454199      -0.95184099       1.47870982       0.00000000
Si      -0.51204357      -2.67996564       1.32018741       0.00000000
Si      -1.22792391       0.63576612       2.95208841       0.00000000
Si      -1.89076401       2.92100877      -0.09974873       0.00000000
Si      -3.05421210       1.12617657      -1.53030159       0.00000000
Si       3.21372378      -1.03042395       1.36633204       0.00000000
Si       1.49939676      -1.96965648       2.76705192       0.00000000
