10
Lattice="16.28999089631971 0.0 0.0 0.0 16.28999089631971 0.0 0.0 0.0 34.69518985606464" Properties=species:S:1:pos:R:3:initial_magmoms:R:1 pbc="T T T"
Si       1.35936792      -1.35348723       1.35824805       0.00000000
Si      -1.35672894      -1.35749457      -1.35783171       0.00000000
Si       1.35770634       1.35764956      -1.35734598       0.00000000
Si      -1.35799956       1.36195389       1.35793579       0.00000000
Si      -0.00887805       2.69407671       2.72229020       0.00000000
Si       2.71536381       2.71354489      -0.00038165       0.00000000
Si       0.00112401       2.71453206      -2.71469195       0.00000000
Si      -2.71445157       0.00011403      -2.71479604       0.00000000
Si       2.71080261      -2.71844262       0.00062451       0.00000000
Si      -2.71754667       2.71176928      -0.00003470       0.00000000
