10
Lattice="16.28999089631971 0.0 0.0 0.0 16.28999089631971 0.0 0.0 0.0 34.69518985606464" Properties=species:S:1:pos:R:3:initial_magmoms:R:1 pbc="T T T"
Si       0.96342318       1.52663364       1.40446207       0.00000000
Si       1.96885827      -0.94156200      -0.95096099       0.00000000
Si      -1.15162155       1.83063762      -1.07617600       0.00000000
Si      -1.74008151      -1.60309890       0.71708058       0.00000000
Si      -1.32895449      -2.70785412      -1.39138198       0.00000000
Si       0.68949054      -1.95732495      -2.64592605       0.00000000
Si      -0.97381620       2.38490487       2.50506350       0.00000000
Si      -2.27444238       0.54669240      -2.74494617       0.00000000
Si       2.54213595      -2.47440213       0.92237214       0.00000000
Si      -2.56062510       2.67928146       0.77797068       0.00000000
