10
Lattice="16.28999089631971 0.0 0.0 0.0 16.28999089631971 0.0 0.0 0.0 34.69518985606464" Properties=species:S:1:pos:R:3:initial_magmoms:R:1 pbc="T T T"
Si      -1.22837744       0.40904190      -1.94626246       0.00000000
Si       0.76421114       2.18704653       0.39212525       0.00000000
Si       2.00714954      -1.25454666      -0.35281558       0.00000000
Si      -1.71533441      -0.79389315       1.56593357       0.00000000
Si       1.66619984      -2.44606079       1.68858114       0.00000000
Si      -0.45668754       2.50874145       2.40798630       0.00000000
Si      -0.86755394       0.35911305       3.38177674       0.00000000
Si       0.18861214      -0.53999721      -3.51431244       0.00000000
Si       1.36885847      -2.25823220      -2.39816756       0.00000000
Si       1.27225877      -0.66894885       3.26575596       0.00000000
