10
Lattice="16.28999089631971 0.0 0.0 0.0 16.28999089631971 0.0 0.0 0.0 34.69518985606464" Properties=species:S:1:pos:R:3:initial_magmoms:R:1 pbc="T T T"
Si       1.57936437      -0.01259217      -1.74038109       0.00000000
Si      -1.87315452       1.11635763      -0.93267661       0.00000000
Si       0.64967778       1.34625840       1.87402703       0.00000000
Si      -0.85173894      -2.11905207       0.75881892       0.00000000
Si      -3.03210494      -1.50245928       1.02774149       0.00000000
Si       3.37015665      -1.22538267      -0.73491392       0.00000000
Si      -1.47009105       2.04167035       2.70282619       0.00000000
Si      -3.49770735      -0.63653175      -1.10903236       0.00000000
Si      -2.26709559       2.89346957       0.64449821       0.00000000
Si       0.74743407      -1.34425080      -3.63092304       0.00000000
