10
Lattice="16.28999089631971 0.0 0.0 0.0 16.28999089631971 0.0 0.0 0.0 34.69518985606464" Properties=species:S:1:pos:R:3:initial_magmoms:R:1 pbc="T T T"
Si      -1.07419518      -1.57395609      -1.33819422       0.00000000
Si       1.10074788      -1.19726613       1.80984090       0.00000000
Si       1.71727551       1.20251151      -1.28292475       0.00000000
Si      -2.66141133       0.76118283       0.73852222       0.00000000
Si      -1.15243605      -1.17454158       2.74064397       0.00000000
Si      -2.13545610       0.07076376      -2.65949187       0.00000000
Si       2.49733845       0.69203178       2.25362732       0.00000000
Si       2.69236233       2.38400892       0.53770635       0.00000000
Si      -1.85849352       2.54743020       2.05093790       0.00000000
Si      -2.95580421       1.95121620      -1.37764267       0.00000000
