10
Lattice="16.28999089631971 0.0 0.0 0.0 16.28999089631971 0.0 0.0 0.0 34.69518985606464" Properties=species:S:1:pos:R:3:initial_magmoms:R:1 pbc="T T T"
Si      -1.00051551      -2.03095412       0.68595898       0.00000000
Si      -0.37761849       0.93889044       2.14395576       0.00000000
Si       2.25318393      -0.02272455      -0.93080307       0.00000000
Si      -1.50897528       1.93572441      -2.00212174       0.00000000
Si       1.15243605       1.17454158      -2.74064397       0.00000000
Si      -1.62745245      -1.47706643      -2.72895168       0.00000000
Si      -0.90326421      -3.24401408      -1.31990985       0.00000000
Si       3.25081611      -1.51949536       0.81443534       0.00000000
Si       0.92662407      -0.51192954       3.53009876       0.00000000
Si      -0.07612317       3.26798577       1.89682178       0.00000000
