10
Lattice="16.28999089631971 0.0 0.0 0.0 16.28999089631971 0.0 0.0 0.0 34.69518985606464" Properties=species:S:1:pos:R:3:initial_magmoms:R:1 pbc="T T T"
Si      -2.19416526       0.44256672      -0.76728455       0.00000000
Si       0.95884569       2.10481461       0.50942976       0.00000000
Si       1.52893053      -0.62739306      -1.71116772       0.00000000
Si       0.02616174      -1.76927319       1.61357010       0.00000000
Si       1.48703265       1.67244543       2.74740953       0.00000000
Si       0.01321119      -3.57559703       0.12348025       0.00000000
Si       1.62435735      -2.98470986      -1.53467319       0.00000000
Si       0.51403095       0.35776098      -3.69483161       0.00000000
Si      -2.07546003       2.55502134      -1.98758445       0.00000000
Si       2.78213652       2.59421508      -1.12634527       0.00000000
