10
Lattice="16.28999089631971 0.0 0.0 0.0 16.28999089631971 0.0 0.0 0.0 34.69518985606464" Properties=species:S:1:pos:R:3:initial_magmoms:R:1 pbc="T T T"
Si      -1.87038522      -0.93456544       1.23345775       0.00000000
Si       0.85002849       1.87247034       1.32392204       0.00000000
Si      -0.28911492       0.92693358      -2.25220481       0.00000000
Si       1.66957839      -1.98370351       0.09889214       0.00000000
Si      -0.35767953      -1.49854153      -2.56689036       0.00000000
Si      -0.52393527      -2.12614541       2.77328665       0.00000000
Si       2.19686940       0.58779207       2.76895669       0.00000000
Si       3.36950505      -0.89700885       1.35662574       0.00000000
Si       2.60592759       2.88168471       0.06281762       0.00000000
Si      -2.84965857      -2.66381315      -0.19984441       0.00000000
