10
Lattice="16.28999089631971 0.0 0.0 0.0 16.28999089631971 0.0 0.0 0.0 34.69518985606464" Properties=species:S:1:pos:R:3:initial_magmoms:R:1 pbc="T T T"
Si      -2.24702631       0.50365145      -0.80135525       0.00000000
Si       2.01458430      -1.00782339      -1.06368573       0.00000000
Si      -0.35999271      -1.38734781       2.03900275       0.00000000
Si       0.78988581       2.36237303       1.14171525       0.00000000
Si      -2.25997686      -1.30267239      -2.29144509       0.00000000
Si       3.49953183       0.15735700       0.37786552       0.00000000
Si      -3.49203843       0.51592597       1.20128692       0.00000000
Si      -0.87842196      -3.56831817       0.78490972       0.00000000
Si       3.04469874       2.49596732       0.24158274       0.00000000
Si      -2.27318805       2.27292464      -2.41492534       0.00000000
