10
Lattice="16.28999089631971 0.0 0.0 0.0 16.28999089631971 0.0 0.0 0.0 34.69518985606464" Properties=species:S:1:pos:R:3:initial_magmoms:R:1 pbc="T T T"
Si      -0.79700454       0.85179921      -2.05832798       0.00000000
Si      -1.48251380      -1.84646728       0.00478794       0.00000000
Si       2.11976883      -0.69541195      -0.82879916       0.00000000
Si      -0.39385962       1.80693078       1.51309277       0.00000000
Si       0.90593577       2.47175826      -2.32003395       0.00000000
Si       2.95090092       1.45219974      -1.61228637       0.00000000
Si       1.47009105      -2.04167035      -2.70282619       0.00000000
Si      -0.40306347      -0.92531272      -3.63550281       0.00000000
Si      -3.66887357      -0.96473290       0.21771244       0.00000000
Si       1.41713226       3.34464162       1.41480124       0.00000000
