10
Lattice="16.28999089631971 0.0 0.0 0.0 16.28999089631971 0.0 0.0 0.0 34.69518985606464" Properties=species:S:1:pos:R:3:initial_magmoms:R:1 pbc="T T T"
Si      -1.35562122      -1.35467640      -1.35713780       0.00000000
Si       1.35972630       1.35995436      -1.35765823       0.00000000
Si       1.36681245      -1.36003581       1.35283560       0.00000000
Si      -1.36300059       1.36640520       1.35099675       0.00000000
Si      -0.00247608       2.69521308       2.71854312       0.00000000
Si      -0.00073305      -2.70107748       2.71847373       0.00000000
Si       2.71450044      -2.71215468      -0.00291440       0.00000000
Si       0.00239463      -2.71239903      -2.71542055       0.00000000
Si      -2.71476108      -2.71322982       0.00000000       0.00000000
Si      -2.71326240       0.00329058      -2.71521238       0.00000000
