10
Lattice="16.28999089631971 0.0 0.0 0.0 16.28999089631971 0.0 0.0 0.0 34.69518985606464" Properties=species:S:1:pos:R:3:initial_magmoms:R:1 pbc="T T T"
Si      -1.76208930       1.63357749      -0.01800681       0.00000000
Si       2.02369041       1.12296744      -0.83653619       0.00000000
Si       0.57552570      -0.80795142       2.26237051       0.00000000
Si      -0.60795909      -1.80862983      -1.58643844       0.00000000
Si       1.74780297       0.33088248      -3.03669819       0.00000000
Si       1.44630765      -1.99821285      -2.78956421       0.00000000
Si      -0.75505779       3.67518690       0.63925923       0.00000000
Si       3.79436454      -0.32399181      -0.31517128       0.00000000
Si      -3.42500508       1.05292044       1.59285706       0.00000000
Si       3.08921931      -2.44745847       0.64390839       0.00000000
