10
Lattice="16.28999089631971 0.0 0.0 0.0 16.28999089631971 0.0 0.0 0.0 34.69518985606464" Properties=species:S:1:pos:R:3:initial_magmoms:R:1 pbc="T T T"
Si       1.35042471      -1.36041048      -1.36039915       0.00000000
Si       1.34131860       1.33698546       1.39707199       0.00000000
Si      -1.36744776       1.35182565      -1.36168288       0.00000000
Si      -1.36679616      -1.38248343       1.35658268       0.00000000
Si       2.71458189       2.71081890       0.00065921       0.00000000
Si       2.71094922      -0.00138465      -2.71944520       0.00000000
Si      -0.00465894       2.71278999      -2.71920233       0.00000000
Si       2.71450044      -2.71971324      -0.00013878       0.00000000
Si      -2.71888245       2.71678104      -0.00405934       0.00000000
Si      -0.00459378      -2.71774215      -2.71961867       0.00000000
