10
Lattice="16.28999089631971 0.0 0.0 0.0 16.28999089631971 0.0 0.0 0.0 34.69518985606464" Properties=species:S:1:pos:R:3:initial_magmoms:R:1 pbc="T T T"
Si      -2.11400217       1.00478349      -0.22968229       0.00000000
Si       1.18578168       0.56628927       1.97401863       0.00000000
Si       1.38787542       0.95848731      -1.77264763       0.00000000
Si      -0.75113190      -2.34659079       0.04843451       0.00000000
Si      -2.94915789       0.16327467      -2.36975218       0.00000000
Si       3.30724467       1.49278302       1.26866502       0.00000000
Si      -3.52988010       0.20562867       1.52422993       0.00000000
Si       1.53855792      -1.48318821       3.20549038       0.00000000
Si       0.44561295       2.64046239       2.77589430       0.00000000
Si      -1.83909213       3.41021376      -0.30795468       0.00000000
