10
Lattice="16.28999089631971 0.0 0.0 0.0 16.28999089631971 0.0 0.0 0.0 34.69518985606464" Properties=species:S:1:pos:R:3:initial_magmoms:R:1 pbc="T T T"
Si       2.11400217      -1.00478349       0.22968229       0.00000000
Si      -1.41587793      -0.79915482       1.75391222       0.00000000
Si       0.27491004       2.40543027      -0.07827239       0.00000000
Si      -0.83515572      -0.84150882      -2.14006990       0.00000000
Si       1.36287027      -3.35137428       0.27811680       0.00000000
Si      -3.17523051       0.75326589       1.78080100       0.00000000
Si      -3.13067736      -0.25461270      -1.99199074       0.00000000
Si       3.50187759      -0.04629618      -1.54296535       0.00000000
Si       0.65979387       3.01451337      -2.32631378       0.00000000
Si      -2.42290944      -2.84076423       1.09664617       0.00000000
