10
Lattice="16.28999089631971 0.0 0.0 0.0 16.28999089631971 0.0 0.0 0.0 34.69518985606464" Properties=species:S:1:pos:R:3:initial_magmoms:R:1 pbc="T T T"
Si       0.74016873      -2.07417312      -0.80187568       0.00000000
Si       1.74083085       0.76344714       1.42153211       0.00000000
Si      -1.92852423      -0.25306515       1.36470136       0.00000000
Si      -0.23179041       1.38013767      -1.97113892       0.00000000
Si       2.86163172      -1.14767937      -1.50722928       0.00000000
Si      -0.55311066       3.51041355      -1.06705116       0.00000000
Si       1.15981542       0.00837306       3.57083094       0.00000000
Si      -1.17514431      -0.37431162       3.59952387       0.00000000
Si       1.42847010       3.11666796       1.70995339       0.00000000
Si       3.78040401      -0.29624994       0.60910909       0.00000000
