10
Lattice="16.28999089631971 0.0 0.0 0.0 16.28999089631971 0.0 0.0 0.0 34.69518985606464" Properties=species:S:1:pos:R:3:initial_magmoms:R:1 pbc="T T T"
Si       1.35549090      -1.35744570      -1.35706841       0.00000000
Si       1.35610992       1.36000323       1.35557652       0.00000000
Si      -1.35839704       1.35716877      -1.35738067       0.00000000
Si      -1.35781874      -1.35839052       1.35942769       0.00000000
Si       0.00928530       2.70622512       2.70955706       0.00000000
Si       2.71186146      -0.00144981      -2.71517769       0.00000000
Si       2.71322982      -2.71497285       0.00045104       0.00000000
Si       2.71402803       2.71461447      -0.00124903       0.00000000
Si      -0.00182448       2.71440270      -2.71451848       0.00000000
Si      -0.00327429      -2.71593396      -2.71399805       0.00000000
