10
Lattice="16.28999089631971 0.0 0.0 0.0 16.28999089631971 0.0 0.0 0.0 34.69518985606464" Properties=species:S:1:pos:R:3:initial_magmoms:R:1 pbc="T T T"
Si      -1.33346682      -1.33623286       1.38939741       0.00000000
Si       1.38341589       1.37534841       1.38707283       0.00000000
Si       1.27212912      -1.49777590      -1.47434863       0.00000000
Si      -1.57100760       1.20976056      -1.50279870       0.00000000
Si       2.06631224       0.44150787      -2.50490598       0.00000000
Si       0.26332526       2.01950388      -2.68994182       0.00000000
Si      -2.69594613      -2.70579248       0.00227254       0.00000000
Si      -2.68022628       2.73254976       0.00939546       0.00000000
Si      -2.69299764       0.01544292       2.74715973       0.00000000
Si       2.74239611      -2.70084032      -0.00181109       0.00000000
