10
Lattice="16.28999089631971 0.0 0.0 0.0 16.28999089631971 0.0 0.0 0.0 34.69518985606464" Properties=species:S:1:pos:R:3:initial_magmoms:R:1 pbc="T T T"
Si       1.33346682       1.33623286      -1.38939741       0.00000000
Si      -1.35953082       1.35167578       1.35776232       0.00000000
Si       1.35333562      -1.36278557       1.35772762       0.00000000
Si      -1.36247931      -1.36955961      -1.38712487       0.00000000
Si      -0.00143352       2.71039210       2.71524708       0.00000000
Si      -2.71710684       2.70995227      -0.00062451       0.00000000
Si       2.71688271       2.71158127      -0.00232458       0.00000000
Si       2.71349439      -0.00413929       2.71545525       0.00000000
Si       2.71296659      -2.71890918      -0.00832685       0.00000000
Si      -2.71697652      -0.00347954       2.71562872       0.00000000
