10
Lattice="16.28999089631971 0.0 0.0 0.0 16.28999089631971 0.0 0.0 0.0 34.69518985606464" Properties=species:S:1:pos:R:3:initial_magmoms:R:1 pbc="T T T"
Si      -1.35923869      -1.35650088      -1.35918482       0.00000000
Si       1.35781874       1.35839052      -1.35942769       0.00000000
Si       1.35944774      -1.35723393       1.35942769       0.00000000
Si      -1.36305500       1.36161594       1.36275843       0.00000000
Si       2.71058921      -2.71762975      -0.00201232       0.00000000
Si       2.71330964       0.00094482      -2.71649610       0.00000000
Si      -0.00117777      -2.71417301      -2.71677366       0.00000000
Si      -2.71784871       2.71404432      -0.00173476       0.00000000
Si       2.71392866       2.71839375      -0.00385117       0.00000000
Si      -0.00057829       2.71555929      -2.71680836       0.00000000
