10
Lattice="16.28999089631971 0.0 0.0 0.0 16.28999089631971 0.0 0.0 0.0 34.69518985606464" Properties=species:S:1:pos:R:3:initial_magmoms:R:1 pbc="T T T"
Si       1.35408996       1.34649882       1.36595039       0.00000000
Si      -1.36039419       1.35338949      -1.36102367       0.00000000
Si       1.35519768      -1.36403500      -1.35849092       0.00000000
Si      -1.38303729      -1.36033066       1.34877626       0.00000000
Si      -0.22289607       2.49621444       2.73693158       0.00000000
Si       2.58593976      -0.18992511       2.68152333       0.00000000
Si      -2.70808218       2.70550836      -0.00527367       0.00000000
Si       2.70997510       2.71453302       0.00627983       0.00000000
Si      -0.00070047       2.70979263      -2.71649610       0.00000000
Si      -2.71485882      -2.71413988       0.00076329       0.00000000
