10
Lattice="16.28999089631971 0.0 0.0 0.0 16.28999089631971 0.0 0.0 0.0 34.69518985606464" Properties=species:S:1:pos:R:3:initial_magmoms:R:1 pbc="T T T"
Si       1.39659057       1.88929791       0.44378642       0.00000000
Si      -1.10074788       1.19726613      -1.80984090       0.00000000
Si      -2.25318393       0.02272455       0.93080307       0.00000000
Si       0.99763218      -1.49677081       1.74523842       0.00000000
Si       1.82094507      -1.36617551      -1.75471021       0.00000000
Si       3.22760286      -1.53181712       1.02087184       0.00000000
Si       3.66769743       0.77462208       0.32540637       0.00000000
Si      -2.17494306      -0.37668996      -3.14803512       0.00000000
Si       0.91614960      -0.39431574       3.73698629       0.00000000
Si       0.61652763       2.39977764      -3.09276565       0.00000000
