10
Lattice="16.28999089631971 0.0 0.0 0.0 16.28999089631971 0.0 0.0 0.0 34.69518985606464" Properties=species:S:1:pos:R:3:initial_magmoms:R:1 pbc="T T T"
Si       1.30851054       2.02531941       0.35420339       0.00000000
Si      -2.25186444      -0.26409348       1.06521231       0.00000000
Si       0.92971917      -1.54755000       1.77785191       0.00000000
Si       1.47403323      -1.66550589      -1.31862612       0.00000000
Si      -2.88179874       0.18989253      -1.52131553       0.00000000
Si       1.66905711       0.02647125      -3.03454709       0.00000000
Si      -1.84471218       1.99602999      -2.60411832       0.00000000
Si       3.15925002      -0.81749736       1.97346350       0.00000000
Si      -1.97597700       0.52799148       3.26537431       0.00000000
Si      -2.55335976      -2.59318881       1.31234629       0.00000000
