10
Lattice="16.28999089631971 0.0 0.0 0.0 16.28999089631971 0.0 0.0 0.0 34.69518985606464" Properties=species:S:1:pos:R:3:initial_magmoms:R:1 pbc="T T T"
Si      -2.33290719      -0.27100044       0.53042036       0.00000000
Si       1.75604571       0.58837851       1.56985413       0.00000000
Si       0.27655533       1.79587476      -1.61180064       0.00000000
Si       1.18086210      -2.24055918       0.09999159       0.00000000
Si      -2.80458414      -0.90544707      -1.72969496       0.00000000
Si       3.26787730      -0.97725339       0.56674624       0.00000000
Si       0.82031553      -0.24171102       3.48874207       0.00000000
Si       1.80406863       0.85915089      -3.09064924       0.00000000
Si       1.66775391       3.27055959      -0.46481172       0.00000000
Si      -0.94926717      -1.85223816      -3.07756915       0.00000000
