10
Lattice="16.28999089631971 0.0 0.0 0.0 16.28999089631971 0.0 0.0 0.0 34.69518985606464" Properties=species:S:1:pos:R:3:initial_magmoms:R:1 pbc="T T T"
Si      -1.35604476      -1.34498385       1.38369005       0.00000000
Si       1.36247931       1.36955961       1.38712487       0.00000000
Si      -1.54463409       1.23330680      -1.38381495       0.00000000
Si       1.17094149      -1.45823193      -1.52796314       0.00000000
Si       2.69594613       2.70579248      -0.00227254       0.00000000
Si       2.70566726      -2.72243367      -0.00815337       0.00000000
Si      -2.72318301      -2.70920619       0.01887072       0.00000000
Si      -2.71726974       2.71810772       0.02851599       0.00000000
Si       0.00329058      -2.70959715       2.74485250       0.00000000
Si      -2.71264338       0.00753729       2.74662195       0.00000000
