10
Lattice="16.28999089631971 0.0 0.0 0.0 16.28999089631971 0.0 0.0 0.0 34.69518985606464" Properties=species:S:1:pos:R:3:initial_magmoms:R:1 pbc="T T T"
Si       1.35237951      -1.35855342      -1.36584630       0.00000000
Si       1.33866333       1.35881406       1.38114689       0.00000000
Si      -1.36479249       1.35744570      -1.36303599       0.00000000
Si      -1.37326329      -1.37383344       1.39641278       0.00000000
Si       2.70235859      -2.70340695      -0.00600227       0.00000000
Si      -0.30555153       2.62058859       2.76749806       0.00000000
Si      -2.71458189      -2.71081890      -0.00065921       0.00000000
Si       2.71269305       2.71761234      -0.00430221       0.00000000
Si       2.70964223       0.00221544      -2.72097179       0.00000000
Si      -0.00363267      -2.71220355      -2.72010440       0.00000000
