10
Lattice="16.28999089631971 0.0 0.0 0.0 16.28999089631971 0.0 0.0 0.0 34.69518985606464" Properties=species:S:1:pos:R:3:initial_magmoms:R:1 pbc="T T T"
Si      -0.80645274       1.83212883      -1.21245878       0.00000000
Si       0.60020505       1.66648722       1.56312326       0.00000000
Si      -1.98588132      -1.16626626       0.75999856       0.00000000
Si       2.10239459      -1.07259876      -0.79469377       0.00000000
Si      -2.08951830       0.28652481      -2.51543737       0.00000000
Si      -1.62976563       1.70153352       2.28748984       0.00000000
Si       0.88594794      -2.39954958      -2.43650576       0.00000000
Si       1.60653676       0.46658879       3.34586720       0.00000000
Si      -3.67025103      -0.78402141      -0.89648951       0.00000000
Si      -2.37547296      -0.50002155       3.00908080       0.00000000
