10
Lattice="16.28999089631971 0.0 0.0 0.0 16.28999089631971 0.0 0.0 0.0 34.69518985606464" Properties=species:S:1:pos:R:3:initial_magmoms:R:1 pbc="T T T"
Si      -1.08149310       1.45501207      -1.42323218       0.00000000
Si       1.28306556       1.54560402       1.30297858       0.00000000
Si       1.64421486      -1.26177453      -1.38635117       0.00000000
Si      -1.58073273      -1.07054622       1.61894785       0.00000000
Si       2.08951830      -0.28652481       2.51543737       0.00000000
Si       0.10363698      -1.45279107       3.27543592       0.00000000
Si      -2.41331463       0.10120285      -2.77124514       0.00000000
Si      -2.71282257       2.53508957      -0.09034632       0.00000000
Si      -2.55803499      -2.79601560       0.21993293       0.00000000
Si       0.30555153      -2.62058859      -2.76749806       0.00000000
