10
Lattice="16.28999089631971 0.0 0.0 0.0 16.28999089631971 0.0 0.0 0.0 34.69518985606464" Properties=species:S:1:pos:R:3:initial_magmoms:R:1 pbc="T T T"
Si       1.39129373      -1.30504077      -1.47593420       0.00000000
Si      -1.43483949      -1.59974316       1.14181934       0.00000000
Si       1.21644665       1.32695082       1.64181200       0.00000000
Si      -1.33125138       1.42429986      -1.46528277       0.00000000
Si      -0.88594794       2.39954958       2.43650576       0.00000000
Si       0.03244388      -2.63792115      -2.85243193       0.00000000
Si      -2.66991471       0.06548580      -2.84642966       0.00000000
Si       2.77808750       2.77648389       0.05009988       0.00000000
Si       2.36344184      -3.14310663      -0.22326367       0.00000000
Si       2.75361992       0.07211583      -2.85045431       0.00000000
