10
Lattice="16.28999089631971 0.0 0.0 0.0 16.28999089631971 0.0 0.0 0.0 34.69518985606464" Properties=species:S:1:pos:R:3:initial_magmoms:R:1 pbc="T T T"
Si       0.95346999      -2.16487584      -0.33172090       0.00000000
Si       1.35123921       1.41907077       1.42694457       0.00000000
Si      -1.93271076      -0.63615708       1.37903048       0.00000000
Si      -0.59232069       1.50552180      -1.93824786       0.00000000
Si      -2.25403101       1.49411880       2.28311824       0.00000000
Si      -2.88355806       1.59966171      -1.58525881       0.00000000
Si       1.87719444       3.29837544       0.07109048       0.00000000
Si      -0.17014905       2.28846807       3.03211842       0.00000000
Si       1.16071137      -3.16397412       1.84294012       0.00000000
Si       2.81854583      -1.86616611      -1.87513728       0.00000000
