10
Lattice="16.28999089631971 0.0 0.0 0.0 16.28999089631971 0.0 0.0 0.0 34.69518985606464" Properties=species:S:1:pos:R:3:initial_magmoms:R:1 pbc="T T T"
Si       0.52595523       1.87930467      -1.35585408       0.00000000
Si      -1.52138826       0.86939730       1.60517386       0.00000000
Si      -1.35123921      -1.41907077      -1.42694457       0.00000000
Si       2.20831542      -0.68131296       0.76374564       0.00000000
Si      -3.60527022       0.07504803       0.85617368       0.00000000
Si       3.32803790       1.46211777       0.78692204       0.00000000
Si       2.03844982       1.05306137      -3.02840603       0.00000000
Si       2.14779156       3.18035276      -0.32922284       0.00000000
Si      -3.28394997      -2.05522785      -0.04791408       0.00000000
Si      -1.94355990       0.08645103      -3.36519243       0.00000000
