10
Lattice="16.28999089631971 0.0 0.0 0.0 16.28999089631971 0.0 0.0 0.0 34.69518985606464" Properties=species:S:1:pos:R:3:initial_magmoms:R:1 pbc="T T T"
Si      -2.08388196      -0.79434927      -0.74900018       0.00000000
Si      -0.10230120      -1.18809486       2.02800437       0.00000000
Si       1.52138826      -0.86939730      -1.60517386       0.00000000
Si       0.12694797       2.40483473       0.15140989       0.00000000
Si      -2.26740510      -0.50367051       2.79424807       0.00000000
Si       2.04734349       1.00990737      -2.96102794       0.00000000
Si      -1.76256171      -2.92462515      -1.65308794       0.00000000
Si       0.17014905      -2.28846807      -3.03211842       0.00000000
Si       1.42198668      -0.28688319       3.52423527       0.00000000
Si      -0.30186999       2.94789446       2.43071166       0.00000000
