10
Lattice="16.28999089631971 0.0 0.0 0.0 16.28999089631971 0.0 0.0 0.0 34.69518985606464" Properties=species:S:1:pos:R:3:initial_magmoms:R:1 pbc="T T T"
Si       1.06302254       2.14464366       0.48687787       0.00000000
Si       0.07815942      -0.22696857      -2.46103528       0.00000000
Si       0.28432470      -1.75765842       1.81098584       0.00000000
Si      -2.64903093      -0.00162900      -0.37953089       0.00000000
Si      -1.94994558      -2.26926216      -0.50575207       0.00000000
Si      -2.14397577       0.62690436      -2.62077202       0.00000000
Si       2.75824628       1.16660835       1.87645570       0.00000000
Si       2.27298347      -2.55438603      -0.93461955       0.00000000
Si       3.43643156      -0.75955383       0.49593332       0.00000000
Si       1.51454550      -0.24495273       3.33752443       0.00000000
