10
Lattice="16.28999089631971 0.0 0.0 0.0 16.28999089631971 0.0 0.0 0.0 34.69518985606464" Properties=species:S:1:pos:R:3:initial_magmoms:R:1 pbc="T T T"
Si      -2.14583285       0.90963360      -0.18752761       0.00000000
Si       1.15080281       1.37845980       1.55895984       0.00000000
Si       1.22089868      -0.32169492      -2.01586105       0.00000000
Si      -0.41086640      -2.14962840       0.97379044       0.00000000
Si      -2.16790580       1.27345446       2.16858936       0.00000000
Si       0.45668754      -2.50874145      -2.40798630       0.00000000
Si       3.37138557       0.01544292      -1.17776357       0.00000000
Si      -1.25864687      -3.30263460      -0.84205273       0.00000000
Si      -0.14530343       1.13865471       3.48100504       0.00000000
Si       1.72894632      -3.17769030       0.85776966       0.00000000
