10
Lattice="16.28999089631971 0.0 0.0 0.0 16.28999089631971 0.0 0.0 0.0 34.69518985606464" Properties=species:S:1:pos:R:3:initial_magmoms:R:1 pbc="T T T"
Si       1.29610624       0.23980509      -1.92204520       0.00000000
Si       0.13663617      -2.25906462       0.76554979       0.00000000
Si      -2.02260237       0.13479975      -1.31241568       0.00000000
Si       1.09188829       2.04994989       1.68882401       0.00000000
Si      -1.65474159       2.45677635      -1.55288818       0.00000000
Si       0.24190052      -1.68078591       3.09134314       0.00000000
Si       3.18044711      -1.04826150      -1.26065043       0.00000000
Si       0.14530343      -1.13865471      -3.48100504       0.00000000
Si       0.54691611       3.32834022      -1.86313274       0.00000000
Si       2.06824736       3.37769892       0.03542381       0.00000000
