10
Lattice="16.28999089631971 0.0 0.0 0.0 16.28999089631971 0.0 0.0 0.0 34.69518985606464" Properties=species:S:1:pos:R:3:initial_magmoms:R:1 pbc="T T T"
Si       1.35572222       1.35662957      -1.35665207       0.00000000
Si       1.35710687      -1.35761702       1.35776232       0.00000000
Si      -1.35806093       1.35767213       1.35758884       0.00000000
Si      -1.36015877      -1.35864628      -1.35772762       0.00000000
Si       2.71176698      -0.00345674       2.71476134       0.00000000
Si      -2.71349439       0.00413929      -2.71545525       0.00000000
Si      -2.71492791       2.71453139      -0.00020817       0.00000000
Si       2.71448741       2.71511783       0.00027756       0.00000000
Si      -2.71471614      -2.71512828      -0.00010409       0.00000000
Si       2.71486208      -2.71511199       0.00000000       0.00000000
