10
Lattice="16.28999089631971 0.0 0.0 0.0 16.28999089631971 0.0 0.0 0.0 34.69518985606464" Properties=species:S:1:pos:R:3:initial_magmoms:R:1 pbc="T T T"
Si       1.36510350       1.32390963       1.36234209       0.00000000
Si       1.35073898      -1.36078566      -1.35967056       0.00000000
Si      -1.36150271       1.35428397      -1.35869909       0.00000000
Si      -1.37402972      -1.35879828       1.38544910       0.00000000
Si      -0.13076063       2.52839386       2.68131516       0.00000000
Si       2.71084158      -2.71098231       0.00027756       0.00000000
Si       2.71225881      -0.00055398      -2.71569811       0.00000000
Si       2.71577745       2.71400212       0.00274092       0.00000000
Si      -2.71269305      -2.71761234       0.00430221       0.00000000
Si      -0.00290899       2.71473517      -2.71587159       0.00000000
