10
Lattice="16.28999089631971 0.0 0.0 0.0 16.28999089631971 0.0 0.0 0.0 34.69518985606464" Properties=species:S:1:pos:R:3:initial_magmoms:R:1 pbc="T T T"
Si       1.35378980       1.35461124       1.35699902       0.00000000
Si      -1.35651338       1.35733167      -1.35689494       0.00000000
Si       1.35811805      -1.35782037      -1.35686024       0.00000000
Si      -1.35726272      -1.36076886       1.35512548       0.00000000
Si      -0.00728364      -2.70562239       2.71496951       0.00000000
Si       2.71381095      -0.00428427      -2.71372049       0.00000000
Si      -2.71327490      -2.71441899       0.00086738       0.00000000
Si      -0.00195601       2.71381367      -2.71451848       0.00000000
Si      -2.71413827       2.71451053       0.00069390       0.00000000
Si      -2.71448036      -0.00255753      -2.71451848       0.00000000
