10
Lattice="16.28999089631971 0.0 0.0 0.0 16.28999089631971 0.0 0.0 0.0 34.69518985606464" Properties=species:S:1:pos:R:3:initial_magmoms:R:1 pbc="T T T"
Si      -1.21644665      -1.32695082      -1.64181200       0.00000000
Si      -2.10239459       1.07259876       0.79469377       0.00000000
Si       1.56164085       1.44953307      -1.59171211       0.00000000
Si       1.61052714      -0.88591536       2.12327742       0.00000000
Si      -1.50218954       2.73908598       2.35781703       0.00000000
Si       2.41535088      -3.06440964      -0.55338859       0.00000000
Si      -2.65128614      -2.92669398      -0.49999266       0.00000000
Si       3.60839790       0.48567006       1.69860805       0.00000000
Si      -2.54769803       0.09734904      -3.10709477       0.00000000
Si       0.17484709      -2.63199159      -3.11774620       0.00000000
