10
Lattice="10.86 0.0 0.0 0.0 10.86 0.0 0.0 0.0 10.86" Properties=species:S:1:pos:R:3:initial_magmoms:R:1 pbc="T T T"
Si      -1.23432588       1.06025094      -1.47933834       0.00000000
Si       1.48067412       1.06025094       1.23566166       0.00000000
Si       1.48067412      -1.65474906      -1.47933834       0.00000000
Si      -2.46152760      -0.30405828       2.44876710       0.00000000
Si      -2.59182588       2.41775094      -0.12183834       0.00000000
Si       0.12317412       2.41775094       2.59316166       0.00000000
Si       0.12317412       2.41775094      -2.83683834       0.00000000
Si       2.83817412       2.41775094      -0.12183834       0.00000000
Si       2.83817412      -0.29724906       2.59316166       0.00000000
Si      -3.03188394      -0.67058328      -2.53170492       0.00000000
