10
Lattice="10.86 0.0 0.0 0.0 10.86 0.0 0.0 0.0 10.86" Properties=species:S:1:pos:R:3:initial_magmoms:R:1 pbc="T T T"
Si      -1.25971656       1.31387538      -1.34614044       0.00000000
Si      -1.25971656      -1.40112462       1.36885956       0.00000000
Si       1.67867364      -1.13636868      -1.23026424       0.00000000
Si       1.45528344       1.31387538       1.36885956       0.00000000
Si      -2.61721656       2.67137538       0.01135956       0.00000000
Si      -2.61721656      -0.04362462      -2.70364044       0.00000000
Si      -2.61721656      -0.04362462       2.72635956       0.00000000
Si       0.09139776       2.73243030      -2.61047250       0.00000000
Si      -2.61721656      -2.75862462       0.01135956       0.00000000
Si       0.09778344       2.67137538       2.72635956       0.00000000
