10
Lattice="16.28999089631971 0.0 0.0 0.0 16.28999089631971 0.0 0.0 0.0 34.45770212530097" Properties=species:S:1:pos:R:3:initial_magmoms:R:1 pbc="T T T"
Si      -1.35685926      -1.35691439      -1.35615254       0.00000000
Si       1.35821133       1.35764932      -1.35591134       0.00000000
Si      -1.35837423       1.35647644       1.36218264       0.00000000
Si       1.36184400      -1.35692346       1.36001181       0.00000000
Si      -2.70669264       0.00368154       2.71898988       0.00000000
Si       0.00039096      -2.71423884      -2.71299424       0.00000000
Si      -2.71416812       0.00017756      -2.71326990       0.00000000
Si      -2.71322005      -2.71518366       0.00272216       0.00000000
Si      -2.71432777       2.71429681       0.00158506       0.00000000
Si       0.00042354       2.71550228      -2.71354556       0.00000000
