10
Lattice="16.28999089631971 0.0 0.0 0.0 16.28999089631971 0.0 0.0 0.0 34.45770212530097" Properties=species:S:1:pos:R:3:initial_magmoms:R:1 pbc="T T T"
Si      -0.58746627       1.01097532      -1.93717864       0.00000000
Si       2.09407950      -1.02902857       0.14482580       0.00000000
Si      -0.74601684       1.80151273       1.47244735       0.00000000
Si      -1.41597567      -2.06613142       0.05172104       0.00000000
Si      -1.07048106      -1.91026870       2.42454865       0.00000000
Si       1.29275811      -2.17646359       2.15653649       0.00000000
Si      -1.66301352      -0.73198042      -2.94255158       0.00000000
Si      -1.47769848       0.30978041       3.16270196       0.00000000
Si       1.19552310       1.91036251      -2.99565092       0.00000000
Si       2.77316073      -2.48377444      -1.75758499       0.00000000
