10
Lattice="16.28999089631971 0.0 0.0 0.0 16.28999089631971 0.0 0.0 0.0 34.45770212530097" Properties=species:S:1:pos:R:3:initial_magmoms:R:1 pbc="T T T"
Si      -1.01714760      -2.08709109      -0.11105724       0.00000000
Si       2.18401659      -0.47864907       0.69594260       0.00000000
Si      -1.10091078       1.59501906       1.36300963       0.00000000
Si      -0.23166009       0.33163182      -2.33457954       0.00000000
Si      -3.13421229      -1.32717888      -0.97760001       0.00000000
Si       2.07428715       0.35404686       2.90289074       0.00000000
Si       0.30913533       1.89540666       3.25673708       0.00000000
Si      -0.86218083       3.67785846       0.23107348       0.00000000
Si       1.20541113       2.07756144      -2.93962267       0.00000000
Si       0.08446365      -3.37238838      -1.79207717       0.00000000
