10
Lattice="16.28999089631971 0.0 0.0 0.0 16.28999089631971 0.0 0.0 0.0 34.45770212530097" Properties=species:S:1:pos:R:3:initial_magmoms:R:1 pbc="T T T"
Si       1.27317753      -1.31399931       1.52289345       0.00000000
Si       1.37068947       1.94526221       0.35077960       0.00000000
Si      -2.27344380       0.80432689       0.26546229       0.00000000
Si      -0.01941768      -1.14660327      -2.14843893       0.00000000
Si      -0.01418859      -3.26980929       1.66778817       0.00000000
Si       0.22854870       0.57536606      -3.75782126       0.00000000
Si       3.58984359       1.44506146      -0.28799764       0.00000000
Si      -2.79107484       1.21121851       2.48460846       0.00000000
Si       0.63527742       3.75899080      -0.95789020       0.00000000
Si       1.24828641      -0.48417138       3.71843609       0.00000000
