10
Lattice="16.28999089631971 0.0 0.0 0.0 16.28999089631971 0.0 0.0 0.0 34.45770212530097" Properties=species:S:1:pos:R:3:initial_magmoms:R:1 pbc="T T T"
Si       0.84258396       1.73353293       1.36504405       0.00000000
Si       1.69951941      -1.74037473       0.30873709       0.00000000
Si      -1.80913482      -0.75126222       1.47954706       0.00000000
Si      -0.29129778       0.40316121      -2.48615906       0.00000000
Si       2.11890546       0.48399219       2.95844834       0.00000000
Si       1.80180432      -0.94353309      -3.10074697       0.00000000
Si      -0.59308632      -2.22247728       2.95309016       0.00000000
Si       2.78130573       2.57663817       0.24945268       0.00000000
Si       0.70506378      -3.51049500       1.47154942       0.00000000
Si      -3.00418551      -2.45592927       0.38803912       0.00000000
