10
Lattice="16.28999089631971 0.0 0.0 0.0 16.28999089631971 0.0 0.0 0.0 34.45770212530097" Properties=species:S:1:pos:R:3:initial_magmoms:R:1 pbc="T T T"
Si       1.34817669       1.36383138       1.39426278       0.00000000
Si      -1.36982610      -1.35347094       1.39067918       0.00000000
Si      -1.36262592       1.39403304      -1.41534401       0.00000000
Si       1.41894045      -1.45479474      -1.55805411       0.00000000
Si       2.68213221       2.70869658       0.03185961       0.00000000
Si       2.69526195      -2.70433548       0.03535018       0.00000000
Si      -2.72518668      -2.69281845       0.00167120       0.00000000
Si      -2.73393441       2.71140560       0.02674264       0.00000000
Si       2.70291825       0.00607617       2.75330977       0.00000000
Si      -0.01107720      -2.71000440       2.75210375       0.00000000
