10
Lattice="16.28999089631971 0.0 0.0 0.0 16.28999089631971 0.0 0.0 0.0 34.45770212530097" Properties=species:S:1:pos:R:3:initial_magmoms:R:1 pbc="T T T"
Si       1.33395552       1.34486520      -1.36240317       0.00000000
Si       1.35474156      -1.35775521       1.35904699       0.00000000
Si      -1.36078515       1.35519441       1.35704844       0.00000000
Si      -1.34817669      -1.36383138      -1.39426278       0.00000000
Si       2.61703737      -0.09690921      -2.72448589       0.00000000
Si       2.70953199      -2.71668330      -0.00110265       0.00000000
Si       2.71342530       2.71385928      -0.00268770       0.00000000
Si       2.71176372      -0.00058644       2.71564748       0.00000000
Si      -0.00302994       2.71406291       2.71547519       0.00000000
Si      -0.00260640      -2.71637379       2.71595760       0.00000000
