10
Lattice="16.28999089631971 0.0 0.0 0.0 16.28999089631971 0.0 0.0 0.0 34.45770212530097" Properties=species:S:1:pos:R:3:initial_magmoms:R:1 pbc="T T T"
Si       1.42592886      -1.23712776      -1.32789721       0.00000000
Si       1.63639566       1.04858730       1.26545982       0.00000000
Si      -0.89313183      -1.79349642       1.19602751       0.00000000
Si      -1.31802390       1.49473782      -1.29598936       0.00000000
Si      -1.50811191      -0.73099746       3.11115321       0.00000000
Si       2.64451860      -2.56458357       0.27579960       0.00000000
Si       0.05224203      -2.57197923      -2.67801965       0.00000000
Si       3.46910211      -0.64887957       1.34405788       0.00000000
Si      -2.66470191       0.14291217      -2.67826085       0.00000000
Si      -2.75315661      -2.62285290       0.05120417       0.00000000
