10
Lattice="16.28999089631971 0.0 0.0 0.0 16.28999089631971 0.0 0.0 0.0 34.45770212530097" Properties=species:S:1:pos:R:3:initial_magmoms:R:1 pbc="T T T"
Si       1.35415512       1.34894232       1.38297443       0.00000000
Si      -1.35609363      -1.36869883       1.38183733       0.00000000
Si       1.31201289      -1.45753146      -1.37057310       0.00000000
Si      -1.37394747       1.29010284      -1.55520101       0.00000000
Si      -2.28532410      -0.63609192      -2.87887512       0.00000000
Si      -0.37911717      -2.60031862      -2.78532241       0.00000000
Si       2.71420722       2.70378162      -0.00452085       0.00000000
Si      -2.72365542       2.69619048      -0.01439644       0.00000000
Si       0.00073305       2.70313002       2.74250383       0.00000000
Si       2.71575477      -0.00933417       2.74171130       0.00000000
