10
Lattice="16.28999089631971 0.0 0.0 0.0 16.28999089631971 0.0 0.0 0.0 34.45770212530097" Properties=species:S:1:pos:R:3:initial_magmoms:R:1 pbc="T T T"
Si       0.33544368      -0.18955044      -2.30070760       0.00000000
Si      -0.44149158       2.28628521       0.30860335       0.00000000
Si       1.74268791      -0.49731741       1.50394171       0.00000000
Si      -1.90501776      -1.32390459       0.71964951       0.00000000
Si      -0.64988955      -1.40040243       2.98596830       0.00000000
Si       2.76916968       1.66633668       1.45997365       0.00000000
Si      -0.17899452      -2.50072514      -2.52058232       0.00000000
Si       1.75809825       3.16508184      -0.16525923       0.00000000
Si      -1.24615242       1.25537256      -3.39746241       0.00000000
Si      -2.03680386      -3.11487932      -1.06746575       0.00000000
