10
Lattice="16.28999089631971 0.0 0.0 0.0 16.28999089631971 0.0 0.0 0.0 34.45770212530097" Properties=species:S:1:pos:R:3:initial_magmoms:R:1 pbc="T T T"
Si      -1.50159591       1.11790125       1.37331249       0.00000000
Si      -1.37194380      -1.33551936      -1.35584242       0.00000000
Si       1.33970589       1.37870415      -1.35894362       0.00000000
Si       1.35376416      -1.35081567       1.52816549       0.00000000
Si       0.21378996       1.94331555       2.75058761       0.00000000
Si      -0.58948623      -2.32668441       2.77126224       0.00000000
Si      -2.39438565      -0.69418206       2.74631485       0.00000000
Si       2.11690179       0.38687121       3.09902409       0.00000000
Si      -0.02019960      -2.69372580      -2.71526844       0.00000000
Si       2.69465922       0.02120958      -2.71557856       0.00000000
