10
Lattice="16.28999089631971 0.0 0.0 0.0 16.28999089631971 0.0 0.0 0.0 34.45770212530097" Properties=species:S:1:pos:R:3:initial_magmoms:R:1 pbc="T T T"
Si      -1.71538587      -0.82541430      -1.37727512       0.00000000
Si       1.90311183      -1.55644434       0.34843648       0.00000000
Si       0.90771138       1.93354155      -1.28113808       0.00000000
Si      -1.54295622       0.18533133       2.03183400       0.00000000
Si      -0.21378996      -1.94331555      -2.75058761       0.00000000
Si       1.13997420      -3.29413122      -1.22242212       0.00000000
Si      -2.60817561      -2.63749761      -0.00427276       0.00000000
Si       2.48674995       0.79342074      -2.71988578       0.00000000
Si       1.07237070      -2.47324554       2.93638364       0.00000000
Si       2.24106417       3.31706754       0.15991828       0.00000000
