10
Lattice="16.28999089631971 0.0 0.0 0.0 16.28999089631971 0.0 0.0 0.0 34.45770212530097" Properties=species:S:1:pos:R:3:initial_magmoms:R:1 pbc="T T T"
Si       0.79931772       1.71589086       1.34908871       0.00000000
Si       1.84000437      -1.34917038      -0.44777809       0.00000000
Si      -1.75907565      -1.13911083       1.06457130       0.00000000
Si      -0.52978338       0.34339320      -2.29715845       0.00000000
Si       0.29729250      -2.83864653      -1.42334510       0.00000000
Si      -0.51916230       3.33974322       0.09448307       0.00000000
Si      -0.95552253      -3.34228446       0.58957161       0.00000000
Si       1.54018692       1.37055915      -2.88293972       0.00000000
Si       0.28603611       0.66826467       3.48715586       0.00000000
Si       3.29191578       0.26321382      -1.46793339       0.00000000
