10
Lattice="16.28999089631971 0.0 0.0 0.0 16.28999089631971 0.0 0.0 0.0 34.45770212530097" Properties=species:S:1:pos:R:3:initial_magmoms:R:1 pbc="T T T"
Si      -1.39751336      -1.36977723       1.33386255       0.00000000
Si       1.25571944       1.52910972       1.32440046       0.00000000
Si       1.87033299      -0.26932257      -1.59512100       0.00000000
Si      -1.88855912       0.30838599      -1.61062697       0.00000000
Si       1.08558505       1.74306258      -2.63140251       0.00000000
Si      -1.04138138      -1.21215519      -3.15881239       0.00000000
Si      -1.24257917       2.46045789      -2.27924460       0.00000000
Si       0.02198095      -2.56012011       2.72098569       0.00000000
Si       1.18752298      -2.16459891      -2.87729281       0.00000000
Si      -2.71558613       0.15874605       2.67990519       0.00000000
