10
Lattice="16.28999089631971 0.0 0.0 0.0 16.28999089631971 0.0 0.0 0.0 34.45770212530097" Properties=species:S:1:pos:R:3:initial_magmoms:R:1 pbc="T T T"
Si       0.04891887       2.32246530       0.65400755       0.00000000
Si       1.31848002      -1.62385236       1.25460564       0.00000000
Si      -2.27968776      -0.36989703      -0.80927404       0.00000000
Si       1.50705306       0.12911454      -2.04475564       0.00000000
Si       0.51916230      -3.33974322      -0.09448307       0.00000000
Si      -0.06574644       1.37844351      -3.22289960       0.00000000
Si      -2.50817130       1.28335878      -2.51262259       0.00000000
Si       0.53221059       2.33681679       2.98741553       0.00000000
Si      -0.01062108      -2.99635002      -2.39164153       0.00000000
Si       1.92609702       3.43059255      -0.20840030       0.00000000
