10
Lattice="16.28999089631971 0.0 0.0 0.0 16.28999089631971 0.0 0.0 0.0 34.45770212530097" Properties=species:S:1:pos:R:3:initial_magmoms:R:1 pbc="T T T"
Si      -0.79931772      -1.71589086      -1.34908871       0.00000000
Si      -0.51328161      -1.04762619       2.13806715       0.00000000
Si      -1.31848002       1.62385236      -1.25460564       0.00000000
Si       2.43488259       0.09215253      -0.24592476       0.00000000
Si       1.04068665      -3.06506124      -1.79686680       0.00000000
Si       0.18857304       1.75296690      -3.29936128       0.00000000
Si       3.17412279       0.17531298       2.04044843       0.00000000
Si      -2.55839337      -2.85500169      -0.28451741       0.00000000
Si      -2.66812281      -2.02230576       1.92243073       0.00000000
Si       2.91234249       2.04331986      -1.52609802       0.00000000
