10
Lattice="16.28999089631971 0.0 0.0 0.0 16.28999089631971 0.0 0.0 0.0 34.45770212530097" Properties=species:S:1:pos:R:3:initial_magmoms:R:1 pbc="T T T"
Si       1.35702216       1.35716877       1.35660049       0.00000000
Si      -1.35474156       1.35775521      -1.35904699       0.00000000
Si      -1.35734796      -1.35861858       1.35691061       0.00000000
Si       1.35479043      -1.35892809      -1.36014964       0.00000000
Si      -0.02078604       2.70262041      -2.72145016       0.00000000
Si      -0.00001629       2.71411605       2.71385568       0.00000000
Si       2.71441899      -0.00048870       2.71371785       0.00000000
Si      -0.00765630      -2.71041165      -2.71795959       0.00000000
Si      -2.71552671       2.71294962      -0.00199855       0.00000000
Si      -2.71529865      -0.00096111       2.71382122       0.00000000
