10
Lattice="16.28999089631971 0.0 0.0 0.0 16.28999089631971 0.0 0.0 0.0 34.45770212530097" Properties=species:S:1:pos:R:3:initial_magmoms:R:1 pbc="T T T"
Si       1.35378123      -1.35739683      -1.35367158       0.00000000
Si       1.35464786       1.35738054       1.35711736       0.00000000
Si      -1.36025887      -1.35682668       1.35718627       0.00000000
Si      -1.36126885       1.35751086      -1.36170023       0.00000000
Si       2.69258628      -0.00509877      -2.72606405       0.00000000
Si       2.71048899      -2.71440270      -0.00062024       0.00000000
Si       0.01916204      -2.71898019      -2.70663334       0.00000000
Si       2.71221573       0.00032580       2.71420026       0.00000000
Si       2.71353522       2.71508688      -0.00024120       0.00000000
Si      -0.00290642      -2.71498914       2.71413134       0.00000000
