10
Lattice="16.28999089631971 0.0 0.0 0.0 16.28999089631971 0.0 0.0 0.0 34.45770212530097" Properties=species:S:1:pos:R:3:initial_magmoms:R:1 pbc="T T T"
Si      -1.93989465       1.07499339      -0.80003938       0.00000000
Si       1.96004538       1.19563713       0.63264376       0.00000000
Si      -0.14467149      -0.53919900       2.40888362       0.00000000
Si       0.91497672      -1.21064022      -1.97577129       0.00000000
Si       1.71128079      -2.18297403       2.52157474       0.00000000
Si       2.66738976      -2.53307871      -1.11105477       0.00000000
Si      -3.39514551      -0.44623197      -1.84138617       0.00000000
Si       3.89155068      -0.33065442       0.23696575       0.00000000
Si       0.46288035       1.33941267       3.75230600       0.00000000
Si       1.53624474       2.91856138       2.30694445       0.00000000
