10
Lattice="16.28999089631971 0.0 0.0 0.0 16.28999089631971 0.0 0.0 0.0 34.45770212530097" Properties=species:S:1:pos:R:3:initial_magmoms:R:1 pbc="T T T"
Si       1.35659862       1.35640314       1.35866795       0.00000000
Si      -1.35894438      -1.35901931       1.35839229       0.00000000
Si      -1.36159965       1.35827649      -1.35873687       0.00000000
Si       1.35984033      -1.36123801      -1.35970169       0.00000000
Si      -2.71502172       2.71246419       0.00079253       0.00000000
Si      -0.00115659       2.71329498       2.71612989       0.00000000
Si       2.71395107      -0.00175932       2.71561302       0.00000000
Si       2.71685749       2.71322982       0.00148168       0.00000000
Si      -2.71601541      -0.00167787       2.71585423       0.00000000
Si      -2.71404432      -2.71801563       0.00099927       0.00000000
