10
Lattice="16.28999089631971 0.0 0.0 0.0 16.28999089631971 0.0 0.0 0.0 34.45770212530097" Properties=species:S:1:pos:R:3:initial_magmoms:R:1 pbc="T T T"
Si       1.35457866      -1.35975236      -1.35990843       0.00000000
Si      -1.35957969       1.35457866      -1.36063204       0.00000000
Si       1.34441370       1.33920090       1.39705386       0.00000000
Si      -1.34182359      -1.36478434       1.38499365       0.00000000
Si       2.71332978      -2.71297637      -0.00037903       0.00000000
Si      -2.71453302       2.71207323      -0.00399710       0.00000000
Si       2.71509056       2.71208952       0.00527203       0.00000000
Si      -0.00100998       2.71314837      -2.71726699       0.00000000
Si       2.71409768      -0.00190593      -2.71778386       0.00000000
Si      -2.71586880      -0.00182448      -2.71754265       0.00000000
