10
Lattice="16.28999089631971 0.0 0.0 0.0 16.28999089631971 0.0 0.0 0.0 34.45770212530097" Properties=species:S:1:pos:R:3:initial_magmoms:R:1 pbc="T T T"
Si      -1.37541357      -1.48539876      -1.10891839       0.00000000
Si       1.24916607       0.77572980      -1.85940756       0.00000000
Si      -1.13037939       1.83384675       1.04255282       0.00000000
Si       1.06973172      -1.40537414       1.63849911       0.00000000
Si       2.51413737       1.86370632       1.60510958       0.00000000
Si       2.82946779       2.09859183      -0.69060165       0.00000000
Si       0.47459286       2.62588284       2.51927293       0.00000000
Si      -3.31266924      -1.65953886       0.25605533       0.00000000
Si       3.03576760      -0.30393882       2.45459578       0.00000000
Si      -0.37937781      -3.60948023      -1.48957284       0.00000000
