10
Lattice="16.28999089631971 0.0 0.0 0.0 16.28999089631971 0.0 0.0 0.0 34.45770212530097" Properties=species:S:1:pos:R:3:initial_magmoms:R:1 pbc="T T T"
Si       1.91029572      -1.41460731       0.22264826       0.00000000
Si      -1.81266975      -0.70221303       1.41264739       0.00000000
Si      -1.39141035      -0.65069102      -1.94417356       0.00000000
Si       0.90759735       1.93057677       1.43265699       0.00000000
Si      -0.41176233      -1.99457871       2.79621105       0.00000000
Si       0.14032206       0.10238265      -3.48732815       0.00000000
Si      -3.01742928       1.02231153      -1.57768123       0.00000000
Si       1.01999835      -3.33447245       1.32240951       0.00000000
Si       2.32709166       0.74023389       2.81978013       0.00000000
Si       3.27707952      -1.18426997      -1.72957087       0.00000000
