10
Lattice="16.28999089631971 0.0 0.0 0.0 16.28999089631971 0.0 0.0 0.0 34.45770212530097" Properties=species:S:1:pos:R:3:initial_magmoms:R:1 pbc="T T T"
Si      -1.62901629      -1.19926980      -1.12819576       0.00000000
Si      -1.46478051       1.16822106       1.45626256       0.00000000
Si       1.23978303      -1.55341440       1.43668713       0.00000000
Si       1.28958156       1.55957202      -1.63266339       0.00000000
Si      -0.34068906      -1.82654883      -2.96366179       0.00000000
Si       2.69280216       2.66484852      -0.01825226       0.00000000
Si      -0.11994327       2.52092637       2.82721469       0.00000000
Si       2.06681004      -1.40377446      -2.85384504       0.00000000
Si      -2.78327682       2.62671363       0.11103312       0.00000000
Si       2.59691922      -0.19578951       2.82270073       0.00000000
