10
Lattice="16.28999089631971 0.0 0.0 0.0 16.28999089631971 0.0 0.0 0.0 34.45770212530097" Properties=species:S:1:pos:R:3:initial_magmoms:R:1 pbc="T T T"
Si       0.76009140       1.76924061      -1.42696316       0.00000000
Si       0.16627203       1.29754737       2.01877452       0.00000000
Si      -1.95203070      -0.88907562      -1.19588968       0.00000000
Si       1.74146357      -1.73240892      -0.00544432       0.00000000
Si       2.17243996       0.49358700      -2.76819550       0.00000000
Si      -0.58525083      -2.23117614      -2.73318646       0.00000000
Si      -1.95664077       2.39506983       1.88766289       0.00000000
Si       1.66015367       3.48930171      -0.15109711       0.00000000
Si       3.60490274      -0.86995116      -1.28317109       0.00000000
Si       0.83514010      -3.64330737      -1.26246200       0.00000000
