10
Lattice="16.28999089631971 0.0 0.0 0.0 16.28999089631971 0.0 0.0 0.0 34.45770212530097" Properties=species:S:1:pos:R:3:initial_magmoms:R:1 pbc="T T T"
Si       2.27048132      -0.08737956       0.59126004       0.00000000
Si      -1.51138620      -0.61814034       1.70820708       0.00000000
Si      -0.11662011      -2.07246267      -1.22097490       0.00000000
Si      -0.67194621       2.20206591      -0.73570681       0.00000000
Si      -3.20153886      -1.31434236       0.22673181       0.00000000
Si       3.37428521      -0.39319173      -1.48405960       0.00000000
Si       1.11267216      -3.58899651       0.23107348       0.00000000
Si       2.39870806       1.64087541      -2.40177210       0.00000000
Si       2.69297388      -2.26613448       1.39987939       0.00000000
Si      -1.82210166       1.16095572       3.25749515       0.00000000
