10
Lattice="16.28999089631971 0.0 0.0 0.0 16.28999089631971 0.0 0.0 0.0 34.45770212530097" Properties=species:S:1:pos:R:3:initial_magmoms:R:1 pbc="T T T"
Si       1.26887601      -1.36547667      -1.37942873       0.00000000
Si       1.37112508       1.33514469       1.36057347       0.00000000
Si      -1.34529336      -1.37821545       1.36208961       0.00000000
Si      -1.24941042       1.48242258      -1.47886338       0.00000000
Si      -2.68791516       2.67794568       0.00962060       0.00000000
Si       0.01447317       2.69578323       2.72251490       0.00000000
Si      -2.70295083      -0.01974348       2.72313514       0.00000000
Si      -2.70242955      -2.73584034      -0.02392400       0.00000000
Si       2.73047183       2.71116099      -0.02746970       0.00000000
Si       2.70856178      -2.74082508      -0.00227421       0.00000000
