10
Lattice="16.28999089631971 0.0 0.0 0.0 16.28999089631971 0.0 0.0 0.0 34.45770212530097" Properties=species:S:1:pos:R:3:initial_magmoms:R:1 pbc="T T T"
Si      -1.22056083      -0.41728464       1.97318696       0.00000000
Si       2.12291280      -1.09752246       0.13111163       0.00000000
Si       0.49329378       2.34994653       0.09555126       0.00000000
Si      -1.57240854       0.62830530      -1.75245079       0.00000000
Si      -2.97228969       0.69006069       0.55818063       0.00000000
Si       1.95664077      -2.39506983      -1.88766289       0.00000000
Si       0.65397834      -0.07288146       3.58050183       0.00000000
Si      -0.03288951       2.08816623      -3.19447198       0.00000000
Si       1.35705474       2.90248704       2.24385236       0.00000000
Si       1.94176800       2.96324874      -1.86326683       0.00000000
