10
Lattice="16.28999089631971 0.0 0.0 0.0 16.28999089631971 0.0 0.0 0.0 34.45770212530097" Properties=species:S:1:pos:R:3:initial_magmoms:R:1 pbc="T T T"
Si       0.47745990       1.95116733      -1.28017326       0.00000000
Si       0.73924020       0.08316045       2.28637319       0.00000000
Si      -2.43488259      -0.09215253       0.24592476       0.00000000
Si       1.93225464      -1.20042639      -0.96378247       0.00000000
Si       0.05771547      -1.54482957      -2.57109734       0.00000000
Si      -1.39419594      -3.15721377      -1.55094204       0.00000000
Si       0.78209919      -2.24153658       3.02941949       0.00000000
Si      -3.23420031      -1.80804339      -1.10316395       0.00000000
Si       2.79748170       1.22753295       2.43750475       0.00000000
Si       2.63533104       1.77494211      -2.30043194       0.00000000
