10
Lattice="16.28999089631971 0.0 0.0 0.0 16.28999089631971 0.0 0.0 0.0 34.45770212530097" Properties=species:S:1:pos:R:3:initial_magmoms:R:1 pbc="T T T"
Si       2.05824150       1.14437250       0.15113157       0.00000000
Si      -0.73924020      -0.08316045      -2.28637319       0.00000000
Si      -1.19949786       0.83461815       1.94227838       0.00000000
Si       0.04285899      -2.32469703       0.74304630       0.00000000
Si       1.19301444      -1.28358684      -3.25015565       0.00000000
Si      -0.48992175      -0.70029081       3.59655913       0.00000000
Si       2.69047269       0.90218907       2.41769156       0.00000000
Si      -2.23218612      -2.75835312       1.23599847       0.00000000
Si      -3.17412279      -0.17531298      -2.04044843       0.00000000
Si      -3.68740440      -1.22293917       0.09761872       0.00000000
