10
Lattice="16.28999089631971 0.0 0.0 0.0 16.28999089631971 0.0 0.0 0.0 34.45770212530097" Properties=species:S:1:pos:R:3:initial_magmoms:R:1 pbc="T T T"
Si      -1.91229680      -1.11741255       0.88959499       0.00000000
Si       1.88319893      -1.63165527       0.56917264       0.00000000
Si      -0.65678022       0.44600391      -2.47716559       0.00000000
Si       0.34532519       1.90534356       2.24809066       0.00000000
Si       3.56400113      -0.13986594       1.43361350       0.00000000
Si       1.15151729      -3.12338758       2.25942725       0.00000000
Si      -3.14558012       0.22607262       2.51117536       0.00000000
Si      -1.21152640      -3.03307094       2.43013080       0.00000000
Si      -2.39824379       2.17841283      -2.47172127       0.00000000
Si       2.46238988       1.14543135       3.11463344       0.00000000
