10
Lattice="16.28999089631971 0.0 0.0 0.0 16.28999089631971 0.0 0.0 0.0 34.45770212530097" Properties=species:S:1:pos:R:3:initial_magmoms:R:1 pbc="T T T"
Si      -1.18856727      -1.55613483       1.31170208       0.00000000
Si       1.50271992       1.22337900       1.37958379       0.00000000
Si      -1.97156241       0.87190596      -1.10051071       0.00000000
Si       1.34407161      -1.04640444      -1.84252328       0.00000000
Si      -1.83632283      -2.64888432      -0.66365571       0.00000000
Si       1.85326443       2.92382694      -0.20560922       0.00000000
Si      -2.54589894      -1.11397536      -2.31793646       0.00000000
Si       0.45123300      -3.04119639       2.05974475       0.00000000
Si      -1.24885656       2.29631985      -2.80120600       0.00000000
Si       0.22501377       2.56741803       2.99540972       0.00000000
