10
Lattice="16.28999089631971 0.0 0.0 0.0 16.28999089631971 0.0 0.0 0.0 34.45770212530097" Properties=species:S:1:pos:R:3:initial_magmoms:R:1 pbc="T T T"
Si      -0.91878858      -1.74715137       1.35074065       0.00000000
Si       1.73883437       1.00646136       1.35267028       0.00000000
Si      -1.80452475       1.69139070       0.02959918       0.00000000
Si       1.92580773      -0.05553261      -1.64259958       0.00000000
Si       2.97314396       1.95750414      -0.48885169       0.00000000
Si       0.35305317       2.19572910       2.83033453       0.00000000
Si      -2.32200918      -2.85242787      -0.26367048       0.00000000
Si      -2.35729332      -0.55162827       2.83922462       0.00000000
Si      -0.94133394       3.53100411       1.34938991       0.00000000
Si      -3.55224627       0.88366734       1.47690071       0.00000000
