10
Lattice="16.28999089631971 0.0 0.0 0.0 16.28999089631971 0.0 0.0 0.0 34.45770212530097" Properties=species:S:1:pos:R:3:initial_magmoms:R:1 pbc="T T T"
Si      -1.21194342      -1.06429086      -1.64235837       0.00000000
Si       2.03920568      -1.16049960       0.35033165       0.00000000
Si      -1.73552031      -0.29302452       1.61878929       0.00000000
Si       0.59778503       2.34957579      -0.28413837       0.00000000
Si      -2.59160868       1.01556747      -1.83142789       0.00000000
Si       2.28696029      -0.63346923       2.64804143       0.00000000
Si       3.36804614       0.03921003      -1.19299523       0.00000000
Si       2.96082872       2.25925914      -0.45484192       0.00000000
Si      -1.18851840      -3.43137447      -1.05447519       0.00000000
Si      -2.73155607       1.83105694       1.99944374       0.00000000
