10
Lattice="16.28999089631971 0.0 0.0 0.0 16.28999089631971 0.0 0.0 0.0 34.45770212530097" Properties=species:S:1:pos:R:3:initial_magmoms:R:1 pbc="T T T"
Si      -2.08630917      -0.97899642      -0.43688945       0.00000000
Si      -0.99603576       2.12408146       0.38065445       0.00000000
Si       1.73552031       0.29302452      -1.61878929       0.00000000
Si       0.48247722      -1.30898295       1.94231284       0.00000000
Si       0.52357689      -0.77126634      -3.26114767       0.00000000
Si       2.29935535       0.07618833       2.49322289       0.00000000
Si      -3.02192532      -0.40886271       1.72498799       0.00000000
Si      -1.25154441      -0.58521825       3.37254948       0.00000000
Si      -1.61086923      -2.96212473      -1.65300581       0.00000000
Si      -0.85608837       1.30859199      -3.45021718       0.00000000
