10
Lattice="16.28999089631971 0.0 0.0 0.0 16.28999089631971 0.0 0.0 0.0 34.45770212530097" Properties=species:S:1:pos:R:3:initial_magmoms:R:1 pbc="T T T"
Si       0.72270585       1.42441389      -1.70069530       0.00000000
Si      -0.57433653      -1.98588132      -1.21742575       0.00000000
Si       1.97156241      -0.87190596       1.10051071       0.00000000
Si      -1.91171295       0.91857681       1.30215729       0.00000000
Si       0.78299514      -2.42804079       2.41221279       0.00000000
Si       0.13523958      -3.52079028       0.43685499       0.00000000
Si       1.96885827       3.03557634      -0.40318980       0.00000000
Si      -1.04767506       1.60076943      -3.34825679       0.00000000
Si       3.31563402      -1.91831040      -0.74201257       0.00000000
Si       2.45672748       0.70064919      -3.13093194       0.00000000
