10
Lattice="16.28999089631971 0.0 0.0 0.0 16.28999089631971 0.0 0.0 0.0 34.45770212530097" Properties=species:S:1:pos:R:3:initial_magmoms:R:1 pbc="T T T"
Si       1.30530141      -0.07986987       2.07469940       0.00000000
Si      -1.93150530       1.52629155       0.39567801       0.00000000
Si       1.74482190       1.24251975      -1.32310759       0.00000000
Si      -0.49133898       2.45030922      -1.26063574       0.00000000
Si      -1.22416092      -2.20242429      -1.34802052       0.00000000
Si      -1.12819653      -3.28686588       0.71706518       0.00000000
Si      -0.44242011      -0.88759323       3.52200093       0.00000000
Si      -2.18026989      -1.85231961       2.28460899       0.00000000
Si      -2.97657396      -0.87998580      -2.21273704       0.00000000
Si      -3.89155068       0.33065442      -0.23696575       0.00000000
