10
Lattice="16.28999089631971 0.0 0.0 0.0 16.28999089631971 0.0 0.0 0.0 34.45770212530097" Properties=species:S:1:pos:R:3:initial_magmoms:R:1 pbc="T T T"
Si       1.35631634       1.35619137       1.35822000       0.00000000
Si      -1.36064619       1.35454608      -1.35877133       0.00000000
Si      -1.35872397      -1.35879777       1.35818555       0.00000000
Si       1.35665191      -1.36063854      -1.36194144       0.00000000
Si      -2.70238833      -0.01783755      -2.71289431       0.00000000
Si      -0.01447317      -2.69578323      -2.72251490       0.00000000
Si       2.71318049       2.71539639      -0.00044795       0.00000000
Si      -0.00184414       2.71391400       2.71540628       0.00000000
Si       2.71381580      -0.00153126       2.71550965       0.00000000
Si       2.71503755      -2.71642266       0.00103373       0.00000000
