10
Lattice="16.28999089631971 0.0 0.0 0.0 16.28999089631971 0.0 0.0 0.0 34.45770212530097" Properties=species:S:1:pos:R:3:initial_magmoms:R:1 pbc="T T T"
Si      -0.95848309      -1.66158000      -1.38323631       0.00000000
Si       1.69179306       1.06720677      -1.30529294       0.00000000
Si      -1.67607388       1.80974311       0.09830788       0.00000000
Si       1.93883091      -0.26694423       1.68897967       0.00000000
Si      -0.86935706      -1.99982556       1.82350262       0.00000000
Si      -2.25923959      -0.24342147      -2.71137472       0.00000000
Si       0.47682459       2.48459871      -2.70403523       0.00000000
Si      -3.52813285       1.05239916      -1.21732238       0.00000000
Si      -1.68752575      -3.52090431       0.09320814       0.00000000
Si       2.76734031       2.81016251      -0.29992001       0.00000000
