10
Lattice="10.86 0.0 0.0 0.0 10.86 0.0 0.0 0.0 10.86" Properties=species:S:1:pos:R:3:initial_magmoms:R:1 pbc="T T T"
Si      -1.12013298      -1.45292682      -1.18488030       0.00000000
Si      -1.12013298       1.26207318       1.53011970       0.00000000
Si       1.59486702       1.26207318      -1.18488030       0.00000000
Si      -2.47763298      -0.09542682      -2.54238030       0.00000000
Si      -2.47763298       2.61957318       0.17261970       0.00000000
Si       0.23736702       2.61957318      -2.54238030       0.00000000
Si      -2.47763298      -2.81042682       0.17261970       0.00000000
Si       0.23736702      -2.81042682      -2.54238030       0.00000000
Si      -2.47763298      -0.09542682       2.88761970       0.00000000
Si       0.32039172      -2.65276134       2.74983888       0.00000000
