10
Lattice="10.86 0.0 0.0 0.0 10.86 0.0 0.0 0.0 10.86" Properties=species:S:1:pos:R:3:initial_magmoms:R:1 pbc="T T T"
Si      -1.41420006       1.08420810       1.28562852       0.00000000
Si       1.30079994       1.08420810      -1.42937148       0.00000000
Si       1.30079994      -1.63079190       1.28562852       0.00000000
Si      -0.05670006       2.44170810       2.64312852       0.00000000
Si       2.65829994       2.44170810      -0.07187148       0.00000000
Si      -2.77170006       2.44170810      -0.07187148       0.00000000
Si      -0.05670006       2.44170810      -2.78687148       0.00000000
Si       2.65829994      -0.27329190       2.64312852       0.00000000
Si      -2.77170006      -0.27329190       2.64312852       0.00000000
Si       2.65829994      -0.27329190      -2.78687148       0.00000000
