10
Lattice="16.290000149 0.0 0.0 0.0 16.290000149 0.0 0.0 0.0 29.1751946751" Properties=species:S:1:pos:R:3:initial_magmoms:R:1 pbc="T T T"
Si       1.32787936       1.38062638      -1.37529534       0.00000000
Si       1.35009892      -1.36695907       1.37219693       0.00000000
Si      -1.36511830       1.35176050       1.38660948       0.00000000
Si      -1.38811978      -1.37402893      -1.34562416       0.00000000
Si       2.52982073      -0.08775423      -2.80721389       0.00000000
Si      -2.63801891      -2.75387340       0.07871176       0.00000000
Si      -2.83287990       0.05426199      -2.56117947       0.00000000
Si       2.72090243       0.03543075       2.68907186       0.00000000
Si      -0.06131556       2.81649216      -2.59858207       0.00000000
Si       2.63503784       2.81981532       0.00116409       0.00000000
