10
Lattice="16.290000149 0.0 0.0 0.0 16.290000149 0.0 0.0 0.0 29.1751946751" Properties=species:S:1:pos:R:3:initial_magmoms:R:1 pbc="T T T"
Si      -1.38041298       1.45356160      -1.15274112       0.00000000
Si       1.52831152      -1.26384337      -1.21170419       0.00000000
Si       0.85576258       1.66186346       1.38733886       0.00000000
Si      -0.92209546      -1.72779887       1.28338764       0.00000000
H        0.24029379       2.96896656       0.95469990       0.00000000
Si       2.56150478      -2.08775900       0.74212943       0.00000000
Si       0.11399742      -2.65732256      -2.50924179       0.00000000
Si      -2.61268852       0.09176515      -2.59618387       0.00000000
Si       0.11238471       1.07043546       3.53752153       0.00000000
Si       0.73122553      -3.38068002       1.37841125       0.00000000
