10
Lattice="16.290000149 0.0 0.0 0.0 16.290000149 0.0 0.0 0.0 29.1751946751" Properties=species:S:1:pos:R:3:initial_magmoms:R:1 pbc="T T T"
Si      -1.51949863       1.31864293       1.19662061       0.00000000
Si       1.41105610       1.28448280      -1.38182475       0.00000000
Si      -1.23088870      -1.43281954      -1.42666702       0.00000000
Si       0.98479567      -0.85891469       1.98694746       0.00000000
Si      -0.07956036       2.64798839       2.40788717       0.00000000
Si      -0.76289329      -1.18157561       3.47806248       0.00000000
Si       1.09957501      -3.16467462       1.75328332       0.00000000
Si      -2.68047065      -0.12301557       2.69756767       0.00000000
Si      -2.57395034      -2.81184951      -0.11395831       0.00000000
Si       0.06203232       2.61658127      -2.78906109       0.00000000
