10
Lattice="16.290000149 0.0 0.0 0.0 16.290000149 0.0 0.0 0.0 29.1751946751" Properties=species:S:1:pos:R:3:initial_magmoms:R:1 pbc="T T T"
Si       1.35729910       1.33952671      -1.31262118       0.00000000
Si       1.43663140      -1.32006016       1.28117032       0.00000000
Si      -1.33709950       1.44370126       1.28478805       0.00000000
Si      -1.30525255      -1.28959786      -1.47935159       0.00000000
Si       0.05944221      -2.63948501       2.64493562       0.00000000
Si      -0.03753216       2.70941798      -2.57388819       0.00000000
Si      -2.69412167       0.07902279       2.61721919       0.00000000
Si      -2.66496257      -2.64530054      -0.12720385       0.00000000
Si       2.78076819      -2.60592761      -0.17688921       0.00000000
Si       2.76967470       0.08076582       2.62699288       0.00000000
