10
Lattice="16.290000149 0.0 0.0 0.0 16.290000149 0.0 0.0 0.0 29.1751946751" Properties=species:S:1:pos:R:3:initial_magmoms:R:1 pbc="T T T"
Si       1.35542738      -1.41231043       1.31177510       0.00000000
Si      -1.46594998       1.26612397       1.34745637       0.00000000
Si      -1.11217044      -1.69318262      -1.25567120       0.00000000
Si       1.18552268       1.69339439      -1.19355721       0.00000000
Si       2.37868374      -2.64130949      -0.53297246       0.00000000
Si      -2.77864886      -2.48904686       0.19162268       0.00000000
Si       2.53156539       0.04748535       2.76486318       0.00000000
Si      -2.86868369       2.42958836      -0.11684665       0.00000000
Si      -0.13140329      -2.60159447       2.76088368       0.00000000
Si       0.32855464      -3.61183512      -1.28537155       0.00000000
