10
Lattice="16.290000149 0.0 0.0 0.0 16.290000149 0.0 0.0 0.0 29.1751946751" Properties=species:S:1:pos:R:3:initial_magmoms:R:1 pbc="T T T"
Si      -1.34454403      -1.35887923      -1.36283169       0.00000000
Si      -1.36974466       1.36399429       1.33631144       0.00000000
Si       1.34615674      -1.35909100       1.36866673       0.00000000
Si       1.35179308       1.37440360      -1.34780647       0.00000000
Si      -0.00474039       2.71893134       2.68394286       0.00000000
Si      -2.70822881      -2.70407486       0.00583504       0.00000000
Si      -2.69661404       0.00905724      -2.71731928       0.00000000
Si       2.76799683       0.04030146      -2.65050809       0.00000000
Si       2.71515206      -2.70655094       0.02949612       0.00000000
Si       2.72412785       2.70032816       0.01788439       0.00000000
