10
Lattice="16.290000149 0.0 0.0 0.0 16.290000149 0.0 0.0 0.0 29.1751946751" Properties=species:S:1:pos:R:3:initial_magmoms:R:1 pbc="T T T"
Si      -1.33715815      -1.35022924       1.36936694       0.00000000
Si       1.35081568      -1.36223497      -1.36020593       0.00000000
Si      -1.40652260       1.33739924      -1.33278124       0.00000000
Si       1.34431597       1.34666988       1.38768896       0.00000000
Si       2.65246814       2.69364926      -0.03442673       0.00000000
Si      -2.71570648       0.04607170       2.66713795       0.00000000
Si      -0.05866029       2.69053787      -2.70900435       0.00000000
Si       2.71376741      -0.01208718      -2.70982126       0.00000000
Si      -2.71714148      -2.71044425       0.01318719       0.00000000
Si      -0.07297920       2.70278795       2.72408793       0.00000000
