10
Lattice="16.290000149 0.0 0.0 0.0 16.290000149 0.0 0.0 0.0 29.1751946751" Properties=species:S:1:pos:R:3:initial_magmoms:R:1 pbc="T T T"
Si      -1.29863881       1.11081674      -1.56113549       0.00000000
Si      -1.89817598      -0.02558019       1.34599761       0.00000000
Si       1.58377897       1.68383378       0.44302533       0.00000000
Si       0.39548862      -2.29323943       0.36072211       0.00000000
H        1.80046856       0.60981616      -2.31017944       0.00000000
H        2.47857239      -0.35986728       1.85743877       0.00000000
H       -2.06513219       1.35875054       1.97098863       0.00000000
Si       1.98141788      -2.45488510      -1.34719379       0.00000000
Si      -1.11097801      -1.27583118       3.07789260       0.00000000
Si       0.79560361       2.30896254       2.61928625       0.00000000
