10
Lattice="16.290000149 0.0 0.0 0.0 16.290000149 0.0 0.0 0.0 29.1751946751" Properties=species:S:1:pos:R:3:initial_magmoms:R:1 pbc="T T T"
Si      -1.35239907      -1.34767171       1.36703292       0.00000000
Si       1.34477209      -1.36950031      -1.36569086       0.00000000
Si      -1.36556465       1.34614045      -1.36945446       0.00000000
Si       1.32857983       1.34364808       1.41266293       0.00000000
Si      -2.65610147       2.68988627       0.08064024       0.00000000
Si       2.68086161       0.03821634      -2.69377782       0.00000000
Si       2.69615792       2.70493823       0.08968455       0.00000000
Si      -2.71423982      -2.70236441       0.01096987       0.00000000
Si      -0.00205254      -2.70925508       2.72423380       0.00000000
Si      -0.01526373       2.75764810      -2.67944696       0.00000000
