10
Lattice="16.290000149 0.0 0.0 0.0 16.290000149 0.0 0.0 0.0 29.1751946751" Properties=species:S:1:pos:R:3:initial_magmoms:R:1 pbc="T T T"
Si      -0.34397964       0.88379767       2.13492405       0.00000000
Si      -1.85473055      -0.93107125      -1.10786967       0.00000000
Si       1.05598297       1.76262689      -1.18092435       0.00000000
Si       1.60217038      -1.77593582      -0.08848837       0.00000000
Si       2.13719915       0.34150356      -2.67921648       0.00000000
Si      -0.67204396      -2.38381346      -2.51872373       0.00000000
Si       1.27790164       2.57096927       2.20558637       0.00000000
Si       2.23138793      -2.17622999       2.05997297       0.00000000
Si       3.43347591      -0.95161294      -1.25319131       0.00000000
Si      -3.15610608      -2.16722162       0.39217297       0.00000000
