10
Lattice="16.290000149 0.0 0.0 0.0 16.290000149 0.0 0.0 0.0 29.1751946751" Properties=species:S:1:pos:R:3:initial_magmoms:R:1 pbc="T T T"
Si      -0.73728541       1.32597343      -1.79018995       0.00000000
Si       1.99461278      -0.88238044      -0.98022819       0.00000000
Si      -1.52129053      -1.84419417      -0.07743097       0.00000000
Si      -0.62701840       1.07751835       2.04197188       0.00000000
H        2.45275274       1.40888953       1.00642752       0.00000000
H        1.26571672      -0.73953506       2.80586600       0.00000000
Si      -2.49575834       2.29858418      -0.53218473       0.00000000
Si       0.80319475      -2.03183624      -2.67090155       0.00000000
Si      -0.63258958      -0.40539294      -3.59706810       0.00000000
Si       2.56442069      -2.60579729       0.55721704       0.00000000
