10
Lattice="16.290000149 0.0 0.0 0.0 16.290000149 0.0 0.0 0.0 29.1751946751" Properties=species:S:1:pos:R:3:initial_magmoms:R:1 pbc="T T T"
H        1.31235499      -0.45874269       0.60634807       0.00000000
Si      -1.25836993       0.24825960       1.93863334       0.00000000
Si       0.27072351       2.02926161      -1.19679566       0.00000000
Si      -0.97166593      -1.99651871      -0.87826089       0.00000000
H        1.88242355      -0.57953305      -1.72749245       0.00000000
Si       3.06848217      -1.09152775      -0.92890902       0.00000000
H       -0.88593166      -2.81903340       1.69636252       0.00000000
Si      -1.92515222       2.75068056      -0.73264749       0.00000000
Si      -3.31972284      -0.44732340       1.03606951       0.00000000
H        1.07649208       0.16374708      -3.38499361       0.00000000
