10
Lattice="16.290000149 0.0 0.0 0.0 16.290000149 0.0 0.0 0.0 29.1751946751" Properties=species:S:1:pos:R:3:initial_magmoms:R:1 pbc="T T T"
Si      -0.84607003      -0.93564874      -0.80643156       0.00000000
H        1.43650108       0.91168615       0.55307417       0.00000000
H        0.80593147      -0.74328013       1.65750116       0.00000000
Si       2.08267652       1.73732852      -0.52448247       0.00000000
Si      -1.09561654       2.74849770      -0.05397411       0.00000000
Si      -0.80576857       1.86551453       2.18819795       0.00000000
Si      -2.14234679       0.35746776      -2.23245672       0.00000000
Si       0.58213945      -2.38088126      -1.92748841       0.00000000
Si      -2.67737555      -1.75997162       0.35827139       0.00000000
Si       1.99199009      -1.25527483       2.45608459       0.00000000
