10
Lattice="16.290000149 0.0 0.0 0.0 16.290000149 0.0 0.0 0.0 29.1751946751" Properties=species:S:1:pos:R:3:initial_magmoms:R:1 pbc="T T T"
Si      -0.47444625       2.03209607      -1.05885534       0.00000000
Si       1.58954563       0.81717157       1.56256508       0.00000000
Si       1.30103344      -1.50146560      -1.31661819       0.00000000
Si      -1.86715982      -0.90073927       1.27790270       0.00000000
H       -2.78150124      -0.73107892      -1.27104653       0.00000000
H        1.03920427       1.18146484      -2.76452475       0.00000000
H       -1.07460244       1.94263139      -2.45938139       0.00000000
Si      -2.18817056       2.48383406       0.46239766       0.00000000
Si       2.22689189      -2.53979021       0.52106898       0.00000000
Si       3.29533671      -0.77537143       1.57540216       0.00000000
