10
Lattice="16.290000149 0.0 0.0 0.0 16.290000149 0.0 0.0 0.0 29.1751946751" Properties=species:S:1:pos:R:3:initial_magmoms:R:1 pbc="T T T"
Si      -1.41297832      -1.29303505      -1.34555268       0.00000000
Si      -1.39132891       1.35769006       1.31690994       0.00000000
Si       1.32843322       1.39914811      -1.34086365       0.00000000
Si       1.37095012      -1.41840289       1.30303130       0.00000000
Si       2.63867051       2.58061295       0.20849469       0.00000000
Si       2.67475286       0.04632876      -2.68216025       0.00000000
Si      -0.09681147      -2.71590140      -2.64475765       0.00000000
Si      -2.72741843      -0.05002659       2.64499689       0.00000000
Si      -2.70021413       0.20852829      -2.67728800       0.00000000
Si      -0.04414590       2.67283064       2.72318641       0.00000000
