10
Lattice="16.290000149 0.0 0.0 0.0 16.290000149 0.0 0.0 0.0 29.1751946751" Properties=species:S:1:pos:R:3:initial_magmoms:R:1 pbc="T T T"
Si       1.34194089       1.36435267       1.35124914       0.00000000
Si      -1.33941268       1.37241622      -1.35057811       0.00000000
Si       1.36451394      -1.34912152      -1.35291213       0.00000000
Si      -1.35511624      -1.34610787       1.37260538       0.00000000
Si      -2.69801498       0.01120752      -2.68630605       0.00000000
Si       2.67216275       0.00620649       2.71612310       0.00000000
Si      -0.00649971      -2.71824716      -2.67682411       0.00000000
Si       2.69361668      -2.70876638       0.02109367       0.00000000
Si      -2.68485266       2.72530073       0.01237028       0.00000000
Si       2.69307911       2.72860761      -0.01312884       0.00000000
