10
Lattice="16.290000149 0.0 0.0 0.0 16.290000149 0.0 0.0 0.0 29.1751946751" Properties=species:S:1:pos:R:3:initial_magmoms:R:1 pbc="T T T"
Si      -0.71895916      -0.07866441      -1.32490394       0.00000000
H       -2.11380671       0.76116655       0.30514336       0.00000000
H        1.14637618       1.63510877      -1.12134861       0.00000000
H        1.79727572       1.21235068      -1.08003653       0.00000000
Si      -1.51365052       0.85063123       1.70566941       0.00000000
Si       0.26182917      -2.68293044       1.44790656       0.00000000
Si       2.25008885      -2.08013528       0.27372168       0.00000000
Si       0.88980868      -0.86830588      -2.84761570       0.00000000
Si       0.37957329       2.35410050       2.02636315       0.00000000
Si      -1.03920427      -1.18146484       2.76452475       0.00000000
