10
Lattice="16.290000149 0.0 0.0 0.0 16.290000149 0.0 0.0 0.0 29.1751946751" Properties=species:S:1:pos:R:3:initial_magmoms:R:1 pbc="T T T"
Si       0.73728541      -1.32597343       1.79018995       0.00000000
Si      -1.75847294       0.97261075       1.25800522       0.00000000
Si       1.38919492       1.82485469      -0.75289507       0.00000000
Si       0.10469583      -1.73136638      -1.80687816       0.00000000
H       -2.14783652      -0.25215291      -1.31448840       0.00000000
Si       2.87876883       0.55961038      -2.03847085       0.00000000
Si       2.73189819      -2.20835387       0.80996175       0.00000000
Si      -0.78400513      -3.17016761       1.71275898       0.00000000
Si      -2.79303456       0.58870432      -2.39414565       0.00000000
Si       1.54048015      -3.35780968      -0.88071160       0.00000000
