10
Lattice="16.290000149 0.0 0.0 0.0 16.290000149 0.0 0.0 0.0 29.1751946751" Properties=species:S:1:pos:R:3:initial_magmoms:R:1 pbc="T T T"
Si      -1.30665349      -1.29119428       1.47030728       0.00000000
Si      -1.35009892       1.36695907      -1.37219693       0.00000000
Si       1.37080351       1.40238982       1.31687493       0.00000000
Si       1.43567029      -1.36686133      -1.28783686       0.00000000
Si      -2.61128702      -2.65463471       0.12078822       0.00000000
Si       2.65344554       0.06970491      -2.72884932       0.00000000
Si       2.74833480      -2.62961327       0.18491822       0.00000000
Si      -2.71521722       2.71871957       0.01441255       0.00000000
Si       2.71396289       0.06880896       2.73864051       0.00000000
Si      -2.73821871      -0.00706986      -2.71782109       0.00000000
