10
Lattice="16.290000149 0.0 0.0 0.0 16.290000149 0.0 0.0 0.0 29.1751946751" Properties=species:S:1:pos:R:3:initial_magmoms:R:1 pbc="T T T"
Si       1.31266450      -1.26275194       1.47275507       0.00000000
Si      -0.84551617      -1.94253365      -1.04439611       0.00000000
Si      -1.43567029       1.36686133       1.28783686       0.00000000
Si       1.21777525       1.43656624      -1.44101246       0.00000000
Si       2.57038283      -2.65422746       0.09564504       0.00000000
Si       2.61275312       2.75421549      -0.07128959       0.00000000
Si      -0.06486678       2.76925116       2.60471178       0.00000000
Si      -1.50368104      -1.50065110      -3.17008038       0.00000000
Si      -0.09365121      -2.67146228       2.73363697       0.00000000
Si       2.76252339       0.17573652      -2.64276791       0.00000000
