10
Lattice="16.290000149 0.0 0.0 0.0 16.290000149 0.0 0.0 0.0 29.1751946751" Properties=species:S:1:pos:R:3:initial_magmoms:R:1 pbc="T T T"
Si       2.20628504      -0.38146293       0.80812372       0.00000000
Si       0.04655682       2.29568456       0.66665320       0.00000000
Si       0.14797836      -0.41050800      -2.36103180       0.00000000
Si      -1.54163674      -1.36537731       1.27629807       0.00000000
H       -2.15550911      -0.19424196      -1.46468230       0.00000000
H       -0.86778460       2.46534491      -1.88229603       0.00000000
Si       0.47716668       2.03978495       2.95134490       0.00000000
Si      -0.71228026       1.66891052      -3.15696029       0.00000000
Si       2.11463750       0.30646377       3.03658927       0.00000000
Si       2.44913636      -0.35135901      -2.80892939       0.00000000
