10
Lattice="16.290000149 0.0 0.0 0.0 16.290000149 0.0 0.0 0.0 29.1751946751" Properties=species:S:1:pos:R:3:initial_magmoms:R:1 pbc="T T T"
Si      -1.23175207       1.84942001       0.67228401       0.00000000
Si      -1.54083853      -0.72086509      -1.60090128       0.00000000
Si       1.61771104       0.67761514      -1.56446146       0.00000000
Si       0.13520700      -1.46390086       1.91619761       0.00000000
H        0.35189658      -2.53791849      -0.83700716       0.00000000
H        0.07581366       2.37636893       1.60314777       0.00000000
H        1.53893260      -0.38949390      -2.63644564       0.00000000
Si      -2.74721079      -2.03691791      -0.08796321       0.00000000
Si       2.42390315      -1.81587890       2.12914736       0.00000000
H       -0.27158688       3.10581885      -2.00176846       0.00000000
