10
Lattice="16.290000149 0.0 0.0 0.0 16.290000149 0.0 0.0 0.0 29.1751946751" Properties=species:S:1:pos:R:3:initial_magmoms:R:1 pbc="T T T"
Si      -1.34820928      -1.34741107       1.37394744       0.00000000
Si       1.35425613      -1.36493911      -1.35247450       0.00000000
Si       1.36184075       1.35469270       1.35606305       0.00000000
Si      -1.36684504       1.36270738      -1.34573503       0.00000000
Si      -2.70343955      -2.68542281       0.00560164       0.00000000
Si      -2.70212006       2.70589934       0.04641773       0.00000000
Si       2.71423982       2.70236441      -0.01096987       0.00000000
Si       2.71218728      -0.00689067       2.71326393       0.00000000
Si      -0.02451645       2.68356575      -2.74736973       0.00000000
Si       2.72173322      -2.71832861       0.00679782       0.00000000
