10
Lattice="16.290000149 0.0 0.0 0.0 16.290000149 0.0 0.0 0.0 29.1751946751" Properties=species:S:1:pos:R:3:initial_magmoms:R:1 pbc="T T T"
Si       2.30115800       0.05914899      -0.44789759       0.00000000
Si      -0.86025862       2.07941852      -0.79592849       0.00000000
Si      -0.14797836       0.41050800       2.36103180       0.00000000
Si      -0.92110177      -2.08526989      -0.81174144       0.00000000
H       -2.30348747       0.21626604       0.89634951       0.00000000
H       -1.01576296       2.87585292       0.47873577       0.00000000
Si      -3.56772180       0.17780535       0.05251535       0.00000000
Si      -2.98144470      -1.36869884      -1.67780710       0.00000000
Si       3.06677172       2.10546623       0.43316412       0.00000000
Si       2.05830668       0.02904507       3.16915552       0.00000000
