10
Lattice="16.290000149 0.0 0.0 0.0 16.290000149 0.0 0.0 0.0 29.1751946751" Properties=species:S:1:pos:R:3:initial_magmoms:R:1 pbc="T T T"
Si       1.29243232      -1.41477022       1.35647150       0.00000000
Si      -1.33103962       1.07274538       1.62252010       0.00000000
Si       1.31981581       1.32440959      -1.44210070       0.00000000
Si      -1.40810761      -1.36622602      -1.31790189       0.00000000
H       -2.51709824       1.58474008       0.82393667       0.00000000
Si       2.71462264       0.02497257       2.51956981       0.00000000
Si      -2.02197998      -0.79022791       3.04101807       0.00000000
Si      -0.34554348      -2.47081835       2.78958624       0.00000000
H       -1.88652863       3.23970636      -0.28049032       0.00000000
Si       2.60798178       2.73497700      -0.12405293       0.00000000
