10
Lattice="16.290000149 0.0 0.0 0.0 16.290000149 0.0 0.0 0.0 29.1751946751" Properties=species:S:1:pos:R:3:initial_magmoms:R:1 pbc="T T T"
Si       1.35239907       1.34767171      -1.36703292       0.00000000
Si       1.35034653      -1.36158337       1.35720088       0.00000000
Si      -1.33284455       1.34721559       1.38999380       0.00000000
Si      -1.36184075      -1.35469270      -1.35606305       0.00000000
Si       2.68097890       2.69131979       0.04563000       0.00000000
Si      -2.70179101       2.70304859       0.04913103       0.00000000
Si      -2.71005004      -2.70210377       0.01788439       0.00000000
Si       2.69031307       0.00061902       2.72233742       0.00000000
Si      -2.68059772      -0.00791694       2.74602767       0.00000000
Si      -0.00758462      -2.71963181      -2.70853755       0.00000000
