10
Lattice="16.290000149 0.0 0.0 0.0 16.290000149 0.0 0.0 0.0 29.1751946751" Properties=species:S:1:pos:R:3:initial_magmoms:R:1 pbc="T T T"
Si      -0.62921755       0.40029417      -2.14846134       0.00000000
Si       1.48722814      -1.79994728       0.11579635       0.00000000
Si       0.97166593       1.99651871       0.87826089       0.00000000
Si      -2.12447666      -0.58554406       1.00178866       0.00000000
H        0.08573427      -0.82251469       2.57462340       0.00000000
H        0.73663381      -1.24527277       2.61593548       0.00000000
H        2.28402092       1.53777601       1.48460896       0.00000000
H        2.85408948       1.41698566      -0.84923157       0.00000000
Si      -2.34805691       1.54919530       1.91433040       0.00000000
Si      -0.17083323      -3.32592933       0.84835631       0.00000000
