10
Lattice="16.290000149 0.0 0.0 0.0 16.290000149 0.0 0.0 0.0 29.1751946751" Properties=species:S:1:pos:R:3:initial_magmoms:R:1 pbc="T T T"
Si      -1.39043296       1.35496963       1.31329221       0.00000000
Si       1.34016202       1.34832331      -1.37199270       0.00000000
Si      -1.39981600      -1.37057545      -1.31501355       0.00000000
Si       1.35384562      -1.30842910       1.42695877       0.00000000
Si       2.58354515      -2.73980861       0.00968616       0.00000000
Si       2.68405445       2.67639815       0.03483518       0.00000000
Si      -2.89043247      -0.00706986       2.47469836       0.00000000
Si      -0.05172075       2.64318284       2.74465644       0.00000000
Si       2.66237246      -0.02476080      -2.74462726       0.00000000
Si      -2.73422765       2.70005123      -0.07007882       0.00000000
