10
Lattice="16.290000149 0.0 0.0 0.0 16.290000149 0.0 0.0 0.0 29.1751946751" Properties=species:S:1:pos:R:3:initial_magmoms:R:1 pbc="T T T"
Si      -1.35132067       1.34247520      -1.36283169       0.00000000
Si      -1.35557236      -1.37104786       1.34130040       0.00000000
Si       1.33527502      -1.34319196      -1.39215276       0.00000000
Si       1.36216981       1.35184195       1.35877634       0.00000000
Si       0.12025278       2.76666414      -2.57274744       0.00000000
Si      -2.76794796      -0.11228697      -2.59831366       0.00000000
Si      -2.70187571       2.67664250       0.03054643       0.00000000
Si       2.70212006      -2.70589934      -0.04641773       0.00000000
Si       0.01128897      -2.70930395       2.70319849       0.00000000
Si      -2.71002071      -0.01444923       2.70270251       0.00000000
