10
Lattice="16.290000149 0.0 0.0 0.0 16.290000149 0.0 0.0 0.0 29.1751946751" Properties=species:S:1:pos:R:3:initial_magmoms:R:1 pbc="T T T"
Si       1.36894645      -1.35583300       1.34086277       0.00000000
Si       1.39808861       1.33450939      -1.33552371       0.00000000
Si      -1.35145099       1.36098064       1.35877634       0.00000000
Si      -1.36216981      -1.35184195      -1.35877634       0.00000000
Si       0.07726347       2.76938962      -2.60910848       0.00000000
Si       2.70179101      -2.70304859      -0.04913103       0.00000000
Si       0.02119329      -2.71096553       2.69689665       0.00000000
Si      -2.71155197      -0.00335574       2.69969746       0.00000000
Si       2.68461646       0.01058850       2.73333646       0.00000000
Si      -2.71376741       2.71293988       0.00749803       0.00000000
