10
Lattice="16.290000149 0.0 0.0 0.0 16.290000149 0.0 0.0 0.0 29.1751946751" Properties=species:S:1:pos:R:3:initial_magmoms:R:1 pbc="T T T"
Si      -1.35596332      -0.57800179      -0.27258384       0.00000000
H        0.92421316      -1.77329684      -0.43780297       0.00000000
H        1.59150043      -0.84216043       1.18235394       0.00000000
Si       1.05699295      -1.10084563       2.56779641       0.00000000
Si      -2.71709057       0.77227633       1.05313700       0.00000000
Si      -1.82654885      -0.15960942      -2.48409278       0.00000000
Si       2.05358258      -1.83457982      -1.44355946       0.00000000
Si      -1.18622152       2.08554356       2.25518420       0.00000000
Si       0.00373041       1.13331160      -3.12037460       0.00000000
Si      -1.80509492      -2.78744709       0.33694432       0.00000000
