10
Lattice="16.290000149 0.0 0.0 0.0 16.290000149 0.0 0.0 0.0 29.1751946751" Properties=species:S:1:pos:R:3:initial_magmoms:R:1 pbc="T T T"
Si       1.39993003       1.41669896       1.25858872       0.00000000
Si      -1.26239356       1.39011531      -1.43151010       0.00000000
Si       1.42925203      -1.28327734      -1.41164179       0.00000000
Si      -1.29619531      -1.59019723       1.27609384       0.00000000
Si      -2.52687224      -2.72837954      -0.34861440       0.00000000
Si       0.28338084      -2.67439448       2.59848871       0.00000000
Si      -2.58343112       2.78593212      -0.06611099       0.00000000
Si       2.87044408       0.12462208       2.52890587       0.00000000
Si      -2.57044799       0.07662816      -2.87836636       0.00000000
Si       2.86900908      -2.63189387      -0.12504488       0.00000000
