10
Lattice="16.290000149 0.0 0.0 0.0 16.290000149 0.0 0.0 0.0 29.1751946751" Properties=species:S:1:pos:R:3:initial_magmoms:R:1 pbc="T T T"
Si      -0.44992980      -1.28379862       0.66522361       0.00000000
H        0.52175241      -1.54517167      -1.81656432       0.00000000
Si       1.55466874      -0.43795665      -2.03246076       0.00000000
Si       2.72669190      -0.60453820      -0.02027676       0.00000000
Si      -1.26952858      -0.31030821       2.61255116       0.00000000
Si      -2.32666814      -1.99671419      -0.60678570       0.00000000
Si       1.55755207      -2.64852596       0.58236606       0.00000000
Si      -2.76558591       1.00955647       1.32268663       0.00000000
Si      -1.85802113       2.85097809       0.15223617       0.00000000
Si       0.29056473       1.20759400      -3.17761633       0.00000000
