10
Lattice="16.290000149 0.0 0.0 0.0 16.290000149 0.0 0.0 0.0 29.1751946751" Properties=species:S:1:pos:R:3:initial_magmoms:R:1 pbc="T T T"
Si      -1.74768896      -0.32266092       1.49111502       0.00000000
Si       0.11477934      -2.30575993      -0.23366413       0.00000000
Si      -0.98479567       0.85891469      -1.98694746       0.00000000
Si       1.83337436       1.18683240       1.00820720       0.00000000
H       -0.41915799       2.66604586       1.50059696       0.00000000
Si      -2.50429430       2.17755762      -0.79032685       0.00000000
Si       1.71349625      -2.23273186      -2.02656737       0.00000000
Si      -1.06435603       3.50690309       0.42093971       0.00000000
Si       0.40462731      -3.18874309       2.00850793       0.00000000
Si      -3.66526632       0.73589913       0.71062022       0.00000000
