10
Lattice="10.86 0.0 0.0 0.0 10.86 0.0 0.0 0.0 10.86" Properties=species:S:1:pos:R:3:initial_magmoms:R:1 pbc="T T T"
Si      -1.29219882      -1.39608558      -1.39977798       0.00000000
Si       1.42280118      -1.39608558       1.31522202       0.00000000
Si       1.42280118       1.31891442      -1.39977798       0.00000000
Si      -2.65222920       2.58056406       0.02178516       0.00000000
Si       0.06358530       2.55954996       2.67813030       0.00000000
Si      -2.64969882      -2.75358558      -0.04227798       0.00000000
Si      -2.64969882      -0.03858558      -2.75727798       0.00000000
Si       0.06530118      -2.75358558       2.67272202       0.00000000
Si       0.06530118       2.67641442      -2.75727798       0.00000000
Si       2.78030118      -0.03858558       2.67272202       0.00000000
