10
Lattice="16.28999089631971 0.0 0.0 0.0 16.28999089631971 0.0 0.0 0.0 34.450931932916035" Properties=species:S:1:pos:R:3:initial_magmoms:R:1 pbc="T T T"
Si       0.21853035      -1.19558826      -2.02151291       0.00000000
Si      -1.60234304      -1.04919003       1.38010510       0.00000000
Si      -0.62273412       1.93719770      -1.20998631       0.00000000
Si      -0.58666806      -3.18783897      -1.12888877       0.00000000
Si       1.44964710       2.14378748      -2.45090957       0.00000000
Si      -2.67084161      -2.40147180      -0.31729326       0.00000000
Si       1.94712741       0.77179481       2.96353972       0.00000000
Si       1.00559799      -3.44165346       0.56695930       0.00000000
Si      -0.18938754      -2.49891858       2.64707329       0.00000000
Si      -3.06424527       1.69654553      -1.25139635       0.00000000
