10
Lattice="16.28999089631971 0.0 0.0 0.0 16.28999089631971 0.0 0.0 0.0 34.450931932916035" Properties=species:S:1:pos:R:3:initial_magmoms:R:1 pbc="T T T"
Si      -1.34825814      -1.33510643       1.35920716       0.00000000
Si      -1.39235517       1.30741406      -1.34553702       0.00000000
Si       1.36656810       1.38036394       1.34983650       0.00000000
Si       1.31084001      -1.32761303      -1.45779889       0.00000000
Si       2.23072002       0.63629538      -2.47788811       0.00000000
Si       0.34186194       2.26593558      -2.66333551       0.00000000
Si      -2.72526813      -2.66347448      -0.01538924       0.00000000
Si       2.72235222      -2.68243604      -0.01917195       0.00000000
Si       0.00817758      -2.69287793       2.71392191       0.00000000
Si      -2.70492192       0.02088439       2.71399081       0.00000000
