10
Lattice="16.28999089631971 0.0 0.0 0.0 16.28999089631971 0.0 0.0 0.0 34.450931932916035" Properties=species:S:1:pos:R:3:initial_magmoms:R:1 pbc="T T T"
Si       0.06507855       2.31585808      -0.41592633       0.00000000
Si      -2.08176426      -0.60228040       0.93630795       0.00000000
Si       1.65892473      -0.87372881       1.45217649       0.00000000
Si       0.74841147      -0.46440184      -2.24334259       0.00000000
Si       1.94867496       1.78159495      -1.92136400       0.00000000
Si      -2.79606284       1.61283055       1.44745671       0.00000000
Si      -2.25958590       2.79374152      -0.78623961       0.00000000
Si       0.75331476       3.24041332       1.62594709       0.00000000
Si       0.60712830      -2.73909901       2.45073731       0.00000000
Si      -1.53487638      -1.85629504       2.90555877       0.00000000
