10
Lattice="16.28999089631971 0.0 0.0 0.0 16.28999089631971 0.0 0.0 0.0 34.450931932916035" Properties=species:S:1:pos:R:3:initial_magmoms:R:1 pbc="T T T"
Si       0.15053589       2.10456374      -0.97234365       0.00000000
Si       2.07032868      -0.89036742       0.61808452       0.00000000
Si      -0.97181253       0.41185355       2.12114506       0.00000000
Si      -1.13305095      -1.33963584      -1.64889143       0.00000000
Si       1.28216961      -3.16560053       1.01192779       0.00000000
Si       0.64715283      -2.13167423      -2.92963999       0.00000000
Si       1.69443693       1.84218071      -2.71321911       0.00000000
Si      -2.03866092       2.77450628      -1.47512083       0.00000000
Si      -3.28399884       0.51451313       1.76943530       0.00000000
Si       3.40933410       0.70266263       1.74883364       0.00000000
