10
Lattice="16.28999089631971 0.0 0.0 0.0 16.28999089631971 0.0 0.0 0.0 34.450931932916035" Properties=species:S:1:pos:R:3:initial_magmoms:R:1 pbc="T T T"
Si      -1.52451594       0.07370411      -1.79534242       0.00000000
Si       2.19098871       0.93929932      -0.22220864       0.00000000
Si       0.02280600      -2.30432380       0.90816152       0.00000000
Si      -1.06929189       1.50435055       1.71152325       0.00000000
Si       3.23960859      -0.10217903       1.57664778       0.00000000
Si      -0.20351097       0.23459881      -3.69259075       0.00000000
Si       1.70623089       3.23073217      -0.67179355       0.00000000
Si      -2.23277256      -2.11876441      -2.19476675       0.00000000
Si       2.02877289      -3.22798309      -0.09163953       0.00000000
Si      -1.62219078      -3.48787375      -0.37200137       0.00000000
