10
Lattice="16.28999089631971 0.0 0.0 0.0 16.28999089631971 0.0 0.0 0.0 34.450931932916035" Properties=species:S:1:pos:R:3:initial_magmoms:R:1 pbc="T T T"
Si       0.41777334       0.23353344      -2.28113528       0.00000000
Si      -0.21348045       2.27282967       0.63772156       0.00000000
Si      -2.46039273      -0.09780516      -0.21545625       0.00000000
Si       1.60217037      -2.00156859       1.07745350       0.00000000
Si      -0.58435488      -1.83063762      -2.76586017       0.00000000
Si      -2.65673610      -2.03722740      -1.52493690       0.00000000
Si      -0.13631472       2.06654940       3.04985903       0.00000000
Si      -2.10546621      -1.46668644       2.94175367       0.00000000
Si       1.09884195       3.67665300      -0.73273728       0.00000000
Si       2.73463488       0.32381262      -2.92405893       0.00000000
