10
Lattice="16.28999089631971 0.0 0.0 0.0 16.28999089631971 0.0 0.0 0.0 34.450931932916035" Properties=species:S:1:pos:R:3:initial_magmoms:R:1 pbc="T T T"
Si       1.35739683      -1.35738054       1.35705742       0.00000000
Si      -1.35744570       1.35744570       1.35747083       0.00000000
Si      -1.35754344      -1.35931905      -1.35643730       0.00000000
Si       1.35739683       1.35840681      -1.35757418       0.00000000
Si      -0.00109143       2.71513575      -2.71163437       0.00000000
Si       2.71353933      -0.00035838       2.71377033       0.00000000
Si       0.00114030      -2.71428867       2.71445935       0.00000000
Si      -2.71383255       0.00087966       2.71504501       0.00000000
Si       0.00130320      -2.71617831      -2.71335692       0.00000000
Si       2.71516833       2.71485882       0.00017225       0.00000000
