10
Lattice="16.28999089631971 0.0 0.0 0.0 16.28999089631971 0.0 0.0 0.0 34.450931932916035" Properties=species:S:1:pos:R:3:initial_magmoms:R:1 pbc="T T T"
Si      -1.35998694      -1.33968960       1.36746161       0.00000000
Si      -1.35280305       1.36068741      -1.35843546       0.00000000
Si       1.36216980      -1.35448092      -1.35902112       0.00000000
Si       1.37342619       1.37528325       1.36129489       0.00000000
Si       0.06058251      -2.57787621       2.74577526       0.00000000
Si      -2.71068858      -2.71264338      -0.00051676       0.00000000
Si      -2.71117728       0.00223173      -2.71563068       0.00000000
Si       2.71562445      -2.71241532       0.00006890       0.00000000
Si       0.00309510      -2.71239903      -2.71580293       0.00000000
Si      -2.71137276       2.71793763       0.00292833       0.00000000
