10
Lattice="16.28999089631971 0.0 0.0 0.0 16.28999089631971 0.0 0.0 0.0 34.450931932916035" Properties=species:S:1:pos:R:3:initial_magmoms:R:1 pbc="T T T"
Si       1.34491869       1.33978734      -1.36312079       0.00000000
Si       1.46593710      -1.22148936       1.39977660       0.00000000
Si      -1.33454196       1.33863075       1.43298731       0.00000000
Si      -1.37342619      -1.37528325      -1.36129489       0.00000000
Si      -0.38072988      -2.17785897       2.72400226       0.00000000
Si      -2.01018600      -0.38828844       3.02937549       0.00000000
Si       2.70936909       2.69817786       0.02115288       0.00000000
Si      -0.00957852       2.70036072      -2.71945473       0.00000000
Si       2.70114264      -0.01583388      -2.72100503       0.00000000
Si      -2.74089024       2.69246007       0.02745741       0.00000000
