10
Lattice="16.28999089631971 0.0 0.0 0.0 16.28999089631971 0.0 0.0 0.0 34.450931932916035" Properties=species:S:1:pos:R:3:initial_magmoms:R:1 pbc="T T T"
Si      -0.93211380      -1.77530049      -1.33952188       0.00000000
Si      -0.17032824      -1.76034627       1.66460106       0.00000000
Si      -1.62945612       1.78957053       0.30537323       0.00000000
Si       1.84666698       0.95636961      -1.32422566       0.00000000
Si       1.77424164       0.21139533       2.21950253       0.00000000
Si       0.38072988       2.17785897      -2.72400226       0.00000000
Si      -2.35268325      -0.53711388      -2.71783554       0.00000000
Si      -3.59010423       0.78856632      -1.07159684       0.00000000
Si      -0.95381208       3.51648972      -1.29101494       0.00000000
Si      -2.79775863      -2.79834507      -0.11692653       0.00000000
