10
Lattice="16.28999089631971 0.0 0.0 0.0 16.28999089631971 0.0 0.0 0.0 34.450931932916035" Properties=species:S:1:pos:R:3:initial_magmoms:R:1 pbc="T T T"
Si      -1.39686750      -1.87242147      -0.35897891       0.00000000
Si      -0.47835585       1.41783273      -1.89886753       0.00000000
Si      -0.02630835       0.81329454       2.28196210       0.00000000
Si       2.07510165      -1.11773835      -0.68681416       0.00000000
Si       3.15766989       0.76911606      -1.70931839       0.00000000
Si      -2.09481255       0.09093078      -3.03192486       0.00000000
Si      -3.32360472      -0.96472638      -1.33597344       0.00000000
Si       1.59977574       2.40792264      -2.37122452       0.00000000
Si      -2.84714991       2.17730511       1.06925417       0.00000000
Si      -0.47306160      -3.64828234       0.91198558       0.00000000
