10
Lattice="16.28999089631971 0.0 0.0 0.0 16.28999089631971 0.0 0.0 0.0 34.450931932916035" Properties=species:S:1:pos:R:3:initial_magmoms:R:1 pbc="T T T"
Si      -1.34390871      -1.34980569      -1.38582396       0.00000000
Si       1.36868580       1.36653552      -1.38475598       0.00000000
Si       1.40634828      -1.35382932       1.40552991       0.00000000
Si      -1.28199042       1.40820534       1.54409163       0.00000000
Si       2.24642358       0.40620744       2.70443412       0.00000000
Si       0.73790442       2.32482735       2.77616100       0.00000000
Si      -2.67719308       2.72376945      -0.00837158       0.00000000
Si      -2.69212450      -2.71288773       0.01302246       0.00000000
Si       2.74089024      -2.69246007      -0.02745741       0.00000000
Si      -2.70129902       0.00689067      -2.74791122       0.00000000
