10
Lattice="16.28999089631971 0.0 0.0 0.0 16.28999089631971 0.0 0.0 0.0 34.450931932916035" Properties=species:S:1:pos:R:3:initial_magmoms:R:1 pbc="T T T"
Si       1.58236173       1.12581819       1.32191745       0.00000000
Si      -1.27900935       1.40209659      -1.40697685       0.00000000
Si      -1.76427216      -0.93558357       1.32405341       0.00000000
Si       1.43956359      -1.33607322      -1.38668524       0.00000000
Si      -3.27279132       0.98303634       1.39578029       0.00000000
Si      -2.60434746      -2.69562033       0.02514919       0.00000000
Si      -2.64200994       0.02474451      -2.76513670       0.00000000
Si      -2.54635506       2.87326278       0.00347955       0.00000000
Si       0.07511319      -2.69446374      -2.77095891       0.00000000
Si       2.76749181       2.73823497       0.07834146       0.00000000
