10
Lattice="16.28999089631971 0.0 0.0 0.0 16.28999089631971 0.0 0.0 0.0 34.450931932916035" Properties=species:S:1:pos:R:3:initial_magmoms:R:1 pbc="T T T"
Si       0.84007530       1.76003676       1.29890421       0.00000000
Si       1.33454196      -1.33863075      -1.43298731       0.00000000
Si      -1.40634828       1.35382932      -1.40552991       0.00000000
Si      -0.67564404      -1.72691919       1.59638818       0.00000000
Si       2.60434746       2.69562033      -0.02514919       0.00000000
Si       2.80047906      -2.56012011      -0.03321072       0.00000000
Si      -2.63629215      -2.72792340       0.21941811       0.00000000
Si      -2.68833870       2.76203466       0.13856173       0.00000000
Si       0.95381208      -3.51648972       1.29101494       0.00000000
Si       2.67946065       0.00115659      -2.79610810       0.00000000
