10
Lattice="16.28999089631971 0.0 0.0 0.0 16.28999089631971 0.0 0.0 0.0 34.450931932916035" Properties=species:S:1:pos:R:3:initial_magmoms:R:1 pbc="T T T"
Si       1.32061238      -1.36695875       1.36306911       0.00000000
Si       1.63632887       1.12964797      -1.27229499       0.00000000
Si      -1.22191942      -1.29973170      -1.54602919       0.00000000
Si      -1.38418641       1.34094556       1.37194023       0.00000000
Si      -0.13458961       2.01253339      -2.55905941       0.00000000
Si       2.67015743      -2.59591480      -0.16920240       0.00000000
Si      -1.87896258       0.46283311      -3.22193016       0.00000000
Si      -2.78696718       2.56971655      -0.00517798       0.00000000
Si      -2.65182534      -2.70795742      -0.08890757       0.00000000
Si       2.68305911      -0.00723113       2.72183874       0.00000000
