10
Lattice="16.28999089631971 0.0 0.0 0.0 16.28999089631971 0.0 0.0 0.0 34.450931932916035" Properties=species:S:1:pos:R:3:initial_magmoms:R:1 pbc="T T T"
Si      -0.92408283       1.15676919      -1.84050762       0.00000000
Si      -0.61739100       1.31991354       1.88667189       0.00000000
Si       2.39129055      -0.02041137      -0.35505150       0.00000000
Si      -0.88308090      -2.01691377       1.00858605       0.00000000
Si      -0.19129347       3.37160224      -1.33907402       0.00000000
Si       0.51795684      -2.20817466       2.88182207       0.00000000
Si      -0.00680922      -0.04919580       3.70943727       0.00000000
Si      -3.26140461       1.38398211      -1.55525374       0.00000000
Si       3.16661310      -2.26300680       0.17556205       0.00000000
Si       3.23672526       2.06162982       0.73494214       0.00000000
