10
Lattice="16.28999089631971 0.0 0.0 0.0 16.28999089631971 0.0 0.0 0.0 34.450931932916035" Properties=species:S:1:pos:R:3:initial_magmoms:R:1 pbc="T T T"
Si      -1.35840681       1.35733004       1.36508449       0.00000000
Si       1.35769005      -1.35932047       1.36456773       0.00000000
Si      -1.36656810      -1.38036394      -1.34983650       0.00000000
Si       1.36024758       1.37906090      -1.36555647       0.00000000
Si      -2.71368594       2.71280465       0.00861274       0.00000000
Si       2.71197549       2.71622555       0.00875054       0.00000000
Si      -2.71482624      -2.71547037       0.00937066       0.00000000
Si       2.71484253      -2.71631745       0.00492649       0.00000000
Si       0.00034209       2.71404269       2.72217636       0.00000000
Si      -2.71511946      -0.00127714       2.72193520       0.00000000
