10
Lattice="16.28999089631971 0.0 0.0 0.0 16.28999089631971 0.0 0.0 0.0 34.450931932916035" Properties=species:S:1:pos:R:3:initial_magmoms:R:1 pbc="T T T"
Si       1.35172791       1.33716465       1.37430701       0.00000000
Si       1.41729516      -1.29613991      -1.38178976       0.00000000
Si      -1.36024758      -1.37906090       1.36555647       0.00000000
Si      -1.38613239       1.34449515      -1.51227962       0.00000000
Si      -0.49609566      -2.12312946      -2.46216814       0.00000000
Si      -2.38495374      -0.49348926      -2.64761554       0.00000000
Si       2.70796815       2.68460829      -0.00710034       0.00000000
Si      -2.72170062       2.67805971      -0.00063734       0.00000000
Si      -0.00127062       2.69195508       2.73033090       0.00000000
Si       2.71290402      -0.02169828       2.72950408       0.00000000
