10
Lattice="16.28999089631971 0.0 0.0 0.0 16.28999089631971 0.0 0.0 0.0 34.450931932916035" Properties=species:S:1:pos:R:3:initial_magmoms:R:1 pbc="T T T"
Si       0.41976072       1.68987573       1.64062320       0.00000000
Si      -2.11797693       1.16338293      -0.66858961       0.00000000
Si       1.62950499      -0.77527042      -1.98017177       0.00000000
Si      -0.62752338      -2.28397922       1.42420232       0.00000000
Si      -0.17340705       3.13512453      -0.11368814       0.00000000
Si      -3.31824042      -1.08261385      -0.99056820       0.00000000
Si      -0.90797202      -3.70497221      -0.37630774       0.00000000
Si      -0.06504597      -1.57390364      -3.54503733       0.00000000
Si      -1.79734086      -2.59293536      -2.26694149       0.00000000
Si       3.89251179       0.08017938      -0.39191402       0.00000000
