10
Lattice="16.28999089631971 0.0 0.0 0.0 16.28999089631971 0.0 0.0 0.0 34.450931932916035" Properties=species:S:1:pos:R:3:initial_magmoms:R:1 pbc="T T T"
Si      -1.35622395       1.35562122       1.35788424       0.00000000
Si      -1.35614250      -1.35702216      -1.35671291       0.00000000
Si       1.35912357       1.35734796      -1.35629950       0.00000000
Si       1.36070370      -1.35604476       1.36064032       0.00000000
Si      -2.70114264       0.01583388       2.72100503       0.00000000
Si      -2.71239903      -2.71393029       0.00068902       0.00000000
Si      -2.71072116       2.71619460       0.00155029       0.00000000
Si      -2.71353933       0.00035838      -2.71377033       0.00000000
Si       0.00179190      -2.71458189      -2.71356362       0.00000000
Si       0.00162900       2.71521720      -2.71359807       0.00000000
