10
Lattice="16.28999089631971 0.0 0.0 0.0 16.28999089631971 0.0 0.0 0.0 34.450931932916035" Properties=species:S:1:pos:R:3:initial_magmoms:R:1 pbc="T T T"
Si      -0.19634337      -1.93942224      -1.30948065       0.00000000
Si      -0.98280828       2.05024311      -0.65315558       0.00000000
Si      -1.41599196      -0.48599586       1.87044549       0.00000000
Si       2.46039273       0.09780516       0.21545625       0.00000000
Si       2.24691228       2.37063483       0.85317781       0.00000000
Si       0.35492652      -1.36888128       3.15720992       0.00000000
Si       2.87816607       0.33133860      -2.06567903       0.00000000
Si       0.05460408       3.43315008       0.98956912       0.00000000
Si       1.87603785      -1.73283246      -2.55040392       0.00000000
Si      -2.63785452      -2.18007441      -1.35089070       0.00000000
