10
Lattice="16.28999089631971 0.0 0.0 0.0 16.28999089631971 0.0 0.0 0.0 34.450931932916035" Properties=species:S:1:pos:R:3:initial_magmoms:R:1 pbc="T T T"
Si       2.05763877      -1.02384279       0.20191702       0.00000000
Si      -1.24035318      -1.61295435      -1.18669746       0.00000000
Si      -0.73715508       0.58735224       2.17309710       0.00000000
Si      -0.08215047       1.86557967      -1.52014822       0.00000000
Si       2.41375446      -1.24291071      -2.12713953       0.00000000
Si       0.30354786      -1.87533738      -2.92757293       0.00000000
Si       3.18565611       0.70797969       1.31550957       0.00000000
Si      -2.29504923       2.22615882       1.51119097       0.00000000
Si      -2.09191293       2.81271285      -0.76150383       0.00000000
Si      -1.81972332      -1.29950217       3.19560133       0.00000000
