10
Lattice="16.28999089631971 0.0 0.0 0.0 16.28999089631971 0.0 0.0 0.0 34.450931932916035" Properties=species:S:1:pos:R:3:initial_magmoms:R:1 pbc="T T T"
Si      -2.04247278       1.02016125       0.48400141       0.00000000
Si       1.14199416       1.37481084       1.52283540       0.00000000
Si       0.84010788       0.47265435      -2.17285594       0.00000000
Si      -0.29916585      -2.27255274       0.78282896       0.00000000
Si      -3.60137691      -0.65862099       0.13404865       0.00000000
Si      -1.93495878       1.08028764       2.97415062       0.00000000
Si       3.21854562       0.33695865       1.82455683       0.00000000
Si       0.25956486       0.81029718       3.65903553       0.00000000
Si      -0.04900032      -3.60908208      -1.18569839       0.00000000
Si      -2.61602739      -2.36283192       1.42575261       0.00000000
