10
Lattice="16.28999089631971 0.0 0.0 0.0 16.28999089631971 0.0 0.0 0.0 34.450931932916035" Properties=species:S:1:pos:R:3:initial_magmoms:R:1 pbc="T T T"
Si      -2.19841695      -0.77716332       0.07689452       0.00000000
Si       1.61894907      -1.76845869       0.42705399       0.00000000
Si      -0.06755463       0.87451236      -2.30855824       0.00000000
Si      -1.10765484      -0.04849533       2.31055639       0.00000000
Si      -0.06369390      -1.43244486      -2.86273624       0.00000000
Si      -3.02653539       1.34785089      -0.47407954       0.00000000
Si      -1.94220783      -2.33399862      -1.73209047       0.00000000
Si       3.43751580      -0.24871572       0.86713044       0.00000000
Si       1.64284650      -2.68364718      -1.77205358       0.00000000
Si       2.51481762       1.82333970       2.10715798       0.00000000
