10
Lattice="16.28999089631971 0.0 0.0 0.0 16.28999089631971 0.0 0.0 0.0 34.450931932916035" Properties=species:S:1:pos:R:3:initial_magmoms:R:1 pbc="T T T"
Si      -1.76779080       0.83399913      -1.19974942       0.00000000
Si      -1.45155303      -1.17874440       1.37769647       0.00000000
Si       1.26736200       1.51586595       1.29799075       0.00000000
Si       1.42363197       0.10948509      -3.21406208       0.00000000
Si      -0.89883333       0.54087687      -3.35972071       0.00000000
Si      -0.09710469      -2.54282013       2.69017435       0.00000000
Si       2.60535744       0.14656113       2.68393873       0.00000000
Si      -3.50024859      -0.78991839      -1.07834427       0.00000000
Si      -2.48217246      -2.83705011      -0.03964809       0.00000000
Si       2.38609404       1.99800108      -2.15996633       0.00000000
