10
Lattice="16.28999089631971 0.0 0.0 0.0 16.28999089631971 0.0 0.0 0.0 34.450931932916035" Properties=species:S:1:pos:R:3:initial_magmoms:R:1 pbc="T T T"
Si       1.35742941      -1.35703845      -1.35729857       0.00000000
Si       1.35718506       1.35674523       1.35805650       0.00000000
Si      -1.35749457       1.35786924      -1.35729857       0.00000000
Si      -1.35912357      -1.35734796       1.35629950       0.00000000
Si       2.71231758       0.00149868      -2.71507946       0.00000000
Si       0.00156384       2.71423980      -2.71390813       0.00000000
Si      -2.71534752      -0.00172674       2.71418374       0.00000000
Si       0.00130320      -2.71495656      -2.71466605       0.00000000
Si      -2.71526607      -2.71437012      -0.00041341       0.00000000
Si       2.71520091      -2.71466334       0.00013780       0.00000000
