10
Lattice="16.28999089631971 0.0 0.0 0.0 16.28999089631971 0.0 0.0 0.0 34.450931932916035" Properties=species:S:1:pos:R:3:initial_magmoms:R:1 pbc="T T T"
Si       1.16965458      -1.44580266      -1.44580307       0.00000000
Si      -1.22815197      -1.45982835       1.40191256       0.00000000
Si      -1.54852740       1.28137140      -1.44156560       0.00000000
Si       1.82335599       0.77631624       1.48190767       0.00000000
Si      -1.72752192       0.10705788       3.07099224       0.00000000
Si       2.57072490       2.59284672       0.06263183       0.00000000
Si       2.52050283      -0.07610688      -2.82266978       0.00000000
Si       2.48235165      -2.90260107       0.11964815       0.00000000
Si      -2.79195939      -2.63829582      -0.06294189       0.00000000
Si      -0.19763028       2.64038094      -2.81953475       0.00000000
