10
Lattice="16.28999089631971 0.0 0.0 0.0 16.28999089631971 0.0 0.0 0.0 34.450931932916035" Properties=species:S:1:pos:R:3:initial_magmoms:R:1 pbc="T T T"
Si       1.73574837       0.10345779       1.56004242       0.00000000
Si      -0.38087649       2.09376999      -1.03394195       0.00000000
Si       0.69509430      -1.60935426      -1.59828298       0.00000000
Si      -1.95225876      -0.36639468       1.37252590       0.00000000
Si      -1.55530404       1.09227708      -2.90989959       0.00000000
Si       0.79759098       1.38639303       3.23976745       0.00000000
Si      -0.70208271      -1.08100440      -3.43207266       0.00000000
Si       3.04632774      -1.29344229      -1.64365488       0.00000000
Si      -1.52883279       1.25183763       3.16910855       0.00000000
Si       2.03901930      -2.15330994       2.31910023       0.00000000
