10
Lattice="16.28999089631971 0.0 0.0 0.0 16.28999089631971 0.0 0.0 0.0 34.450931932916035" Properties=species:S:1:pos:R:3:initial_magmoms:R:1 pbc="T T T"
Si      -1.35267273      -1.35492075      -1.38227551       0.00000000
Si       1.36404315       1.35737132      -1.37876152       0.00000000
Si       1.34042265      -1.35436689       1.46754162       0.00000000
Si      -1.19500182       1.48764615       1.49351764       0.00000000
Si       2.28561732       0.50248134       2.79676267       0.00000000
Si      -2.70607851      -2.69050527      -0.01777669       0.00000000
Si      -2.69068446       2.72595298       0.00585666       0.00000000
Si       2.72507265      -2.71309950       0.01167887       0.00000000
Si       0.49954914       2.28627936       3.05838319       0.00000000
Si      -2.70777267       0.00118917      -2.73888507       0.00000000
