10
Lattice="16.28999089631971 0.0 0.0 0.0 16.28999089631971 0.0 0.0 0.0 34.450931932916035" Properties=species:S:1:pos:R:3:initial_magmoms:R:1 pbc="T T T"
Si      -1.27313018       1.27951434      -1.45055041       0.00000000
Si      -1.37246660      -1.34226342       1.34620192       0.00000000
Si       1.34375637       1.37191122       1.34685649       0.00000000
Si       1.21174709      -1.50978978      -1.33077823       0.00000000
Si      -0.01271646      -2.70117522       2.70653218       0.00000000
Si       2.70294021       0.01537776       2.70604987       0.00000000
Si       2.69528391      -2.71425609      -0.00194303       0.00000000
Si      -2.72608415       2.70682785      -0.02031228       0.00000000
Si      -0.01424702       2.72935692       2.70608432       0.00000000
Si       2.69860707       2.73777885      -0.02636187       0.00000000
