10
Lattice="16.28999089631971 0.0 0.0 0.0 16.28999089631971 0.0 0.0 0.0 34.450931932916035" Properties=species:S:1:pos:R:3:initial_magmoms:R:1 pbc="T T T"
Si       1.22738634      -1.13915970       1.68344573       0.00000000
Si       0.64128843      -0.11631060      -2.32926326       0.00000000
Si       0.78815907       2.27523312      -0.39384327       0.00000000
Si      -2.27097261      -0.94014477       0.25641843       0.00000000
Si       2.12581242      -2.78876655       0.19664603       0.00000000
Si      -1.28216961       3.16560053      -1.01192779       0.00000000
Si       2.21012946       1.81438250      -2.28447702       0.00000000
Si      -3.46701699      -0.03940551      -1.66225839       0.00000000
Si      -3.11283981      -0.21092292       2.38362686       0.00000000
Si      -2.41522056       1.82596469      -2.66081921       0.00000000
