10
Lattice="16.28999089631971 0.0 0.0 0.0 16.28999089631971 0.0 0.0 0.0 34.450931932916035" Properties=species:S:1:pos:R:3:initial_magmoms:R:1 pbc="T T T"
Si      -1.22738634       1.13915970      -1.68344573       0.00000000
Si       0.89842608      -1.64960685      -1.48679970       0.00000000
Si       1.93256415       1.11343779       0.91129656       0.00000000
Si      -1.02485277      -0.24894378       2.18563725       0.00000000
Si       2.60584614      -0.08148258      -2.27421064       0.00000000
Si      -0.24953022      -2.49153921       2.71625080       0.00000000
Si      -0.17941806       1.83309741       3.27563089       0.00000000
Si      -3.49835895       0.19901493      -1.42702730       0.00000000
Si       3.36559545       1.71468540      -0.81552292       0.00000000
Si       2.71951776      -0.12978243       2.86115150       0.00000000
