10
Lattice="16.28999089631971 0.0 0.0 0.0 16.28999089631971 0.0 0.0 0.0 34.450931932916035" Properties=species:S:1:pos:R:3:initial_magmoms:R:1 pbc="T T T"
Si      -1.80871780      -0.89151912       1.15680024       0.00000000
Si      -0.31030821      -0.21641265      -2.32799413       0.00000000
Si       1.01017548       1.91438451       1.12860558       0.00000000
Si       1.95916572      -1.48520817      -0.05224797       0.00000000
Si      -0.32518098      -2.09598543       2.48563544       0.00000000
Si       1.88199999      -1.27892790      -2.46438544       0.00000000
Si      -0.87697215       1.98420345      -2.70388846       0.00000000
Si       2.39210505       0.65293578       2.50345347       0.00000000
Si       1.06904754      -3.35609838       1.06378956       0.00000000
Si      -2.92503321      -2.42450586      -0.20609692       0.00000000
