10
Lattice="16.28999089631971 0.0 0.0 0.0 16.28999089631971 0.0 0.0 0.0 34.450931932916035" Properties=species:S:1:pos:R:3:initial_magmoms:R:1 pbc="T T T"
Si      -0.63024381       0.17673021       2.26315189       0.00000000
Si       0.69714099       1.97402220      -1.12919883       0.00000000
Si      -2.23596540      -0.38618703      -0.77704120       0.00000000
Si       0.92373815      -2.30585602      -0.50250157       0.00000000
Si       1.63411736       0.60054714      -2.77557533       0.00000000
Si      -0.65482542      -3.06567211       1.02729291       0.00000000
Si       0.40074265      -1.83705588       2.84885251       0.00000000
Si      -2.87528274      -2.38512641       0.34723114       0.00000000
Si      -2.05873020      -0.45840060      -3.10623556       0.00000000
Si       0.11769525      -0.93867867      -3.75026164       0.00000000
