10
Lattice="16.28999089631971 0.0 0.0 0.0 16.28999089631971 0.0 0.0 0.0 34.450931932916035" Properties=species:S:1:pos:R:3:initial_magmoms:R:1 pbc="T T T"
Si      -1.37643984       1.31403285       1.48799859       0.00000000
Si       1.31929452      -1.41164253       1.47131400       0.00000000
Si      -1.90969299      -0.86312565      -1.35082666       0.00000000
Si       1.71277947       1.00870938      -1.55422507       0.00000000
Si       2.77897626       2.57610060       0.05152484       0.00000000
Si      -2.73088818       2.67810858       0.17552071       0.00000000
Si      -0.80203815      -0.81463032      -3.66138305       0.00000000
Si      -0.03411126       2.66729202       2.85409939       0.00000000
Si      -2.77480602      -2.75175567      -0.03386529       0.00000000
Si       2.67963984      -0.04567716       2.84827718       0.00000000
