10
Lattice="16.28999089631971 0.0 0.0 0.0 16.28999089631971 0.0 0.0 0.0 34.450931932916035" Properties=species:S:1:pos:R:3:initial_magmoms:R:1 pbc="T T T"
Si       1.35488817       1.35853713      -1.35778089       0.00000000
Si      -1.35612621      -1.35791811      -1.35736748       0.00000000
Si      -1.35742941       1.35703845       1.35729857       0.00000000
Si       1.35777150      -1.35762489       1.35743638       0.00000000
Si      -0.00029322       2.71366965      -2.71201333       0.00000000
Si      -0.00312768      -2.71270854      -2.71339137       0.00000000
Si      -2.71151937      -0.00232947      -2.71669866       0.00000000
Si       2.71450044       0.00153126       2.71387368       0.00000000
Si       2.71437012       2.71458189      -0.00013780       0.00000000
Si       0.00004887      -2.71453302       2.71445935       0.00000000
