10
Lattice="16.28999089631971 0.0 0.0 0.0 16.28999089631971 0.0 0.0 0.0 34.450931932916035" Properties=species:S:1:pos:R:3:initial_magmoms:R:1 pbc="T T T"
Si       0.49295169      -2.32124355      -0.12271429       0.00000000
Si      -1.00475091       1.00888857      -1.92518805       0.00000000
Si       2.06183086       1.21388193       0.33362301       0.00000000
Si      -1.30158729       0.02300148       2.03629237       0.00000000
Si      -1.29647223       3.15810972       0.99928429       0.00000000
Si      -0.62338572       3.27275874      -1.26273071       0.00000000
Si       0.81436968      -2.75849973       2.18653297       0.00000000
Si       3.55958396      -0.16361676       1.46526786       0.00000000
Si      -1.36205577      -2.27822166       2.83055905       0.00000000
Si       2.57029389      -2.64337830      -1.25318780       0.00000000
