10
Lattice="16.28999089631971 0.0 0.0 0.0 16.28999089631971 0.0 0.0 0.0 34.450931932916035" Properties=species:S:1:pos:R:3:initial_magmoms:R:1 pbc="T T T"
Si      -1.35718506      -1.35674523      -1.35805650       0.00000000
Si       1.35829278       1.35785295      -1.35774644       0.00000000
Si       1.36094805      -1.35755973       1.35929673       0.00000000
Si      -1.35718506       1.35892809       1.36243177       0.00000000
Si       2.71474479      -2.71225242      -0.00148139       0.00000000
Si       0.00024435      -2.71378368      -2.71535507       0.00000000
Si      -2.71467963       0.00112401      -2.71535507       0.00000000
Si       2.71461447       0.00079821      -2.71549287       0.00000000
Si      -2.71630863      -2.71409319      -0.00175700       0.00000000
Si       0.00022806       2.71557558      -2.71538952       0.00000000
