10
Lattice="16.28999089631971 0.0 0.0 0.0 16.28999089631971 0.0 0.0 0.0 34.450931932916035" Properties=species:S:1:pos:R:3:initial_magmoms:R:1 pbc="T T T"
Si      -0.67308651      -0.11464902       2.26201500       0.00000000
Si      -0.38136519      -2.26387017      -0.66245734       0.00000000
Si       2.20710182       1.19130399      -0.22021048       0.00000000
Si      -1.56338388       0.99870732      -2.42441679       0.00000000
Si      -0.18775854       2.13884442       2.34173450       0.00000000
Si       1.09048518      -1.54983060      -2.60580105       0.00000000
Si       2.07422755       1.83738168       2.00873161       0.00000000
Si       0.62338572      -3.27275874       1.26273071       0.00000000
Si       2.32067733       0.73423917      -2.75307886       0.00000000
Si       2.68521658      -2.05887681       1.59635373       0.00000000
