10
Lattice="16.28999089631971 0.0 0.0 0.0 16.28999089631971 0.0 0.0 0.0 34.450931932916035" Properties=species:S:1:pos:R:3:initial_magmoms:R:1 pbc="T T T"
Si      -1.35780408       1.35723393       1.36022691       0.00000000
Si       1.36026387      -1.35778376       1.35984795       0.00000000
Si      -1.36244673      -1.35972762      -1.35876963       0.00000000
Si       1.36616085       1.37415924      -1.36629372       0.00000000
Si       2.67283062      -0.07125409      -2.69967989       0.00000000
Si      -2.68305911       0.00723113      -2.72183874       0.00000000
Si      -2.71049310       2.71345788       0.00527100       0.00000000
Si      -2.71355562      -2.71501262       0.00627007       0.00000000
Si       2.71692765      -2.71377458       0.00506429       0.00000000
Si      -2.71339435       0.00036164       2.71818005       0.00000000
