10
Lattice="16.28999089631971 0.0 0.0 0.0 16.28999089631971 0.0 0.0 0.0 34.450931932916035" Properties=species:S:1:pos:R:3:initial_magmoms:R:1 pbc="T T T"
Si      -1.35713619       1.35502556       1.35957234       0.00000000
Si       1.35702216       1.35770898      -1.35764308       0.00000000
Si      -1.35814617      -1.35702216      -1.35784979       0.00000000
Si       1.35995436      -1.35995436       1.35871106       0.00000000
Si      -2.71446786      -2.71235016      -0.00124023       0.00000000
Si       2.71371852      -2.71410948      -0.00062012       0.00000000
Si       2.71446786       2.71391141      -0.00113688       0.00000000
Si       2.71521720       0.00034209      -2.71452825       0.00000000
Si      -0.00037467      -2.71536381      -2.71494166       0.00000000
Si      -0.00058644       2.71547851      -2.71483831       0.00000000
