10
Lattice="16.28999089631971 0.0 0.0 0.0 16.28999089631971 0.0 0.0 0.0 34.450931932916035" Properties=species:S:1:pos:R:3:initial_magmoms:R:1 pbc="T T T"
Si      -1.46434068      -1.64012607      -0.77345831       0.00000000
Si      -0.39695472       0.59276052       2.23452314       0.00000000
Si       2.16906630      -0.65642184      -0.62149516       0.00000000
Si      -1.22492655       1.46950461      -1.41128322       0.00000000
Si      -2.66095521       0.98091864       1.68554724       0.00000000
Si      -3.42070452      -0.81524934       0.22685951       0.00000000
Si      -0.83443896      -1.47843153      -3.09714051       0.00000000
Si      -0.38586123       0.84308895      -3.49773617       0.00000000
Si       2.65868180      -2.34105219       0.93079580       0.00000000
Si       3.42703223       1.24879140      -0.38981251       0.00000000
