10
Lattice="16.28999089631971 0.0 0.0 0.0 16.28999089631971 0.0 0.0 0.0 34.450931932916035" Properties=species:S:1:pos:R:3:initial_magmoms:R:1 pbc="T T T"
Si       0.39695472      -0.59276052      -2.23452314       0.00000000
Si      -2.26400049       0.38815812      -0.54897591       0.00000000
Si       0.41163201      -1.91096361       1.38889010       0.00000000
Si       1.37221488       1.96256937       0.31395152       0.00000000
Si       2.73860054      -2.22312888       0.96989763       0.00000000
Si      -0.82797183       0.87674409      -3.64580636       0.00000000
Si      -3.69703179      -0.21308949       1.17784357       0.00000000
Si       3.56851088       1.48391623      -0.43818165       0.00000000
Si      -3.02374980      -1.40800986      -2.00766363       0.00000000
Si      -1.06738596      -2.23288659      -3.00798145       0.00000000
