10
Lattice="16.28999089631971 0.0 0.0 0.0 16.28999089631971 0.0 0.0 0.0 34.450931932916035" Properties=species:S:1:pos:R:3:initial_magmoms:R:1 pbc="T T T"
Si       1.35640314       1.35710361       1.35829765       0.00000000
Si      -1.35918384       1.35653346      -1.35919338       0.00000000
Si      -1.35898836      -1.35868374       1.35781534       0.00000000
Si       1.35694071      -1.36037790      -1.36095038       0.00000000
Si       2.70962973       0.01928736      -2.69017487       0.00000000
Si      -2.70294021      -0.01537776      -2.70604987       0.00000000
Si       2.71358820      -0.00084708       2.71528617       0.00000000
Si      -0.00161271       2.71415835       2.71552733       0.00000000
Si       2.71601541       2.71479366       0.00086127       0.00000000
Si       2.71349046      -2.71761183       0.00137804       0.00000000
