10
Lattice="16.28999089631971 0.0 0.0 0.0 16.28999089631971 0.0 0.0 0.0 34.450931932916035" Properties=species:S:1:pos:R:3:initial_magmoms:R:1 pbc="T T T"
Si      -1.35678606       1.35321030      -1.36246622       0.00000000
Si      -1.35730734      -1.35773892       1.35781534       0.00000000
Si       1.35850837       1.35764118       1.35778089       0.00000000
Si       1.35800338      -1.35744570      -1.35922783       0.00000000
Si      -2.71362903      -0.00068418       2.71556178       0.00000000
Si      -2.71375935       2.71572219       0.00034451       0.00000000
Si       0.00086658       2.71469592       2.71528617       0.00000000
Si       0.00063044      -2.71494027       2.71528617       0.00000000
Si      -2.71678929      -2.71378368       0.00017225       0.00000000
Si       2.71467857       2.71625976       0.00062012       0.00000000
