10
Lattice="16.28999089631971 0.0 0.0 0.0 16.28999089631971 0.0 0.0 0.0 34.450931932916035" Properties=species:S:1:pos:R:3:initial_magmoms:R:1 pbc="T T T"
Si       1.35884289       1.35664749       1.35643730       0.00000000
Si      -1.35749085      -1.35841658       1.35602389       0.00000000
Si       1.35742240      -1.35732841      -1.35740193       0.00000000
Si      -1.35752343       1.35773892      -1.35788424       0.00000000
Si      -0.00080376      -2.71074464       2.71525172       0.00000000
Si       2.71301267      -0.00045612      -2.71535507       0.00000000
Si       0.00189273      -2.71475287      -2.71390813       0.00000000
Si      -2.71493655      -2.71461902      -0.00048231       0.00000000
Si       2.71532585      -2.71443170      -0.00037896       0.00000000
Si      -2.71454559       2.71531494      -0.00031006       0.00000000
