10
Lattice="16.28999089631971 0.0 0.0 0.0 16.28999089631971 0.0 0.0 0.0 34.450931932916035" Properties=species:S:1:pos:R:3:initial_magmoms:R:1 pbc="T T T"
Si      -0.10491086       1.73415195      -1.51136323       0.00000000
Si      -0.13287427       0.64607769       2.22894209       0.00000000
Si       2.41314033      -0.23947929       0.18596623       0.00000000
Si      -2.20710182      -1.19130399       0.22021048       0.00000000
Si       0.11357551      -0.45706482      -2.53286838       0.00000000
Si       2.01056556      -2.57321727       0.10428303       0.00000000
Si       0.38073151      -1.38634416       3.23969855       0.00000000
Si      -2.39486036       0.94754043       2.56194498       0.00000000
Si       1.55410347       3.27116232      -0.79488680       0.00000000
Si      -2.01370694       2.98620135      -1.01947255       0.00000000
