10
Lattice="16.28999089631971 0.0 0.0 0.0 16.28999089631971 0.0 0.0 0.0 34.450931932916035" Properties=species:S:1:pos:R:3:initial_magmoms:R:1 pbc="T T T"
Si      -1.61228809      -1.47750300      -0.77952167       0.00000000
Si      -0.48961550       1.68463035      -1.55229096       0.00000000
Si       1.73657916      -1.52852328      -0.55800206       0.00000000
Si      -0.31703598       0.71068383       2.27362497       0.00000000
Si       1.11229749      -3.28996098       0.93179488       0.00000000
Si      -2.65868180       2.34105219      -0.93079580       0.00000000
Si      -1.09868231      -3.50992485       0.23123478       0.00000000
Si       0.93372651      -2.36305998      -2.82249753       0.00000000
Si       0.92721051       2.76273513       2.55570936       0.00000000
Si       0.76835043       3.58984359      -1.32060831       0.00000000
