10
Lattice="16.28999089631971 0.0 0.0 0.0 16.28999089631971 0.0 0.0 0.0 34.450931932916035" Properties=species:S:1:pos:R:3:initial_magmoms:R:1 pbc="T T T"
Si      -1.33141102      -1.35384561       1.38120753       0.00000000
Si       1.35900954      -1.35467640      -1.35819430       0.00000000
Si      -1.35536058       1.35971001      -1.35791869       0.00000000
Si       1.35039213       1.35764118       1.36911525       0.00000000
Si       2.71446786      -2.71107954       0.00482313       0.00000000
Si       0.00162900      -2.71309950      -2.71494166       0.00000000
Si      -2.71307894       0.00141723      -2.71514836       0.00000000
Si      -2.71516128      -2.71599912       0.00499539       0.00000000
Si       2.71485882       2.71644122       0.00358290       0.00000000
Si       2.71665072       0.00166158      -2.71518282       0.00000000
