10
Lattice="16.28999089631971 0.0 0.0 0.0 16.28999089631971 0.0 0.0 0.0 34.450931932916035" Properties=species:S:1:pos:R:3:initial_magmoms:R:1 pbc="T T T"
Si       1.33141102       1.35384561      -1.38120753       0.00000000
Si      -1.32093118       1.32797709       1.46092704       0.00000000
Si      -1.38375025      -1.36215351      -1.37621215       0.00000000
Si       1.39520266      -1.31556411       1.55246321       0.00000000
Si      -0.53627494      -2.22361758       2.70140244       0.00000000
Si      -2.38079394      -0.37919862       2.80957842       0.00000000
Si       2.68180315       2.71148679      -0.01209228       0.00000000
Si       2.67719308      -2.72376945       0.00837158       0.00000000
Si       2.69042056      -0.00083079      -2.73940183       0.00000000
Si      -2.74484286       2.69707014      -0.00227376       0.00000000
