10
Lattice="10.86 0.0 0.0 0.0 10.86 0.0 0.0 0.0 10.86" Properties=species:S:1:pos:R:3:initial_magmoms:R:1 pbc="T T T"
Si       1.27581108       1.21658064       1.36492824       0.00000000
Si      -1.43918892       1.21658064      -1.35007176       0.00000000
Si      -1.43918892      -1.49841936       1.36492824       0.00000000
Si       0.82682610      -0.97989780      -2.21298564       0.00000000
Si       2.63331108       2.57408064       0.00742824       0.00000000
Si      -0.08168892       2.57408064      -2.70757176       0.00000000
Si      -0.08168892       2.57408064       2.72242824       0.00000000
Si      -2.79668892       2.57408064       0.00742824       0.00000000
Si       2.69992632      -0.14140806       2.75784270       0.00000000
Si      -2.79668892      -0.14091936      -2.70757176       0.00000000
