10
Lattice="10.86 0.0 0.0 0.0 10.86 0.0 0.0 0.0 10.86" Properties=species:S:1:pos:R:3:initial_magmoms:R:1 pbc="T T T"
Si       1.20349434       1.32827574       1.30974858       0.00000000
Si       1.20349434      -1.38672426      -1.40525142       0.00000000
Si      -1.15628592      -1.47967500       1.38037116       0.00000000
Si      -1.51150566       1.32827574      -1.40525142       0.00000000
Si       2.37986040       0.26136762       2.66270910       0.00000000
Si       2.60889780      -2.47685106      -0.28264236       0.00000000
Si       2.56099434       2.68577574      -0.04775142       0.00000000
Si       2.56099434      -0.02922426      -2.76275142       0.00000000
Si      -0.15400566       2.68577574       2.66724858       0.00000000
Si      -0.15400566       2.68577574      -2.76275142       0.00000000
