10
Lattice="10.86 0.0 0.0 0.0 10.86 0.0 0.0 0.0 10.86" Properties=species:S:1:pos:R:3:initial_magmoms:R:1 pbc="T T T"
Si      -1.40540346       1.09012680      -1.12260906       0.00000000
Si       1.30959654       1.09012680       1.59239094       0.00000000
Si       1.30959654      -1.62487320      -1.12260906       0.00000000
Si      -1.28722494      -1.92175302       1.14328650       0.00000000
Si      -0.04790346       2.44762680      -2.48010906       0.00000000
Si      -2.60889780       2.47685106       0.28264236       0.00000000
Si       2.66709654       2.44762680       0.23489094       0.00000000
Si       2.66709654      -0.26737320      -2.48010906       0.00000000
Si      -2.76290346      -0.26737320      -2.48010906       0.00000000
Si      -0.04790346      -2.98237320      -2.48010906       0.00000000
