10
Lattice="16.28999089631971 0.0 0.0 0.0 16.28999089631971 0.0 0.0 0.0 34.433804113860816" Properties=species:S:1:pos:R:3:initial_magmoms:R:1 pbc="T T T"
Si      -1.34991777      -1.35071467       1.38864378       0.00000000
Si       1.36496616       1.36259334       1.38495937       0.00000000
Si      -1.32878964       1.36619343      -1.49635967       0.00000000
Si       1.30438691      -1.47607600      -1.45129957       0.00000000
Si      -2.70078231      -2.70774728       0.00444885       0.00000000
Si       2.70895469      -2.71994849       0.02430684       0.00000000
Si      -2.69721480       2.73605211       0.00150820       0.00000000
Si       2.72156315       2.72525184       0.01235141       0.00000000
Si      -2.70876441       0.00695583       2.74929631       0.00000000
Si       0.00696091      -2.70962651       2.74936518       0.00000000
