10
Lattice="16.28999089631971 0.0 0.0 0.0 16.28999089631971 0.0 0.0 0.0 34.433804113860816" Properties=species:S:1:pos:R:3:initial_magmoms:R:1 pbc="T T T"
Si       1.45767807       1.55214445       1.05756602       0.00000000
Si      -0.75859598      -1.19246058       2.05917707       0.00000000
Si       1.20163185      -1.50820965      -1.62517316       0.00000000
Si       0.85631643       0.49273992      -3.05813672       0.00000000
Si      -0.44163493       3.13716797       1.03411658       0.00000000
Si      -2.57076467       2.14000005       1.38496281       0.00000000
Si       1.30979745       2.72632602      -2.29594404       0.00000000
Si       2.86272315       2.43938745      -0.57507928       0.00000000
Si      -0.58232352      -3.11085243      -2.16630070       0.00000000
Si      -3.66693506       1.09551879      -0.71660230       0.00000000
