10
Lattice="16.28999089631971 0.0 0.0 0.0 16.28999089631971 0.0 0.0 0.0 34.433804113860816" Properties=species:S:1:pos:R:3:initial_magmoms:R:1 pbc="T T T"
Si       1.34060184       1.34294760      -1.38479064       0.00000000
Si      -1.37267685      -1.37065689      -1.37938453       0.00000000
Si      -1.31691618       1.40991579       1.48953833       0.00000000
Si       1.38137571      -1.41692049       1.42876263       0.00000000
Si      -2.12853285      -0.52799148       2.78669489       0.00000000
Si      -0.41194152      -2.40842763       2.68869623       0.00000000
Si       2.69736336       2.69540856      -0.00013774       0.00000000
Si      -2.73301240       2.67848325      -0.01742351       0.00000000
Si       2.69171073      -2.74237589      -0.02654848       0.00000000
Si       2.69938332      -0.01153332      -2.74379035       0.00000000
