10
Lattice="16.28999089631971 0.0 0.0 0.0 16.28999089631971 0.0 0.0 0.0 34.433804113860816" Properties=species:S:1:pos:R:3:initial_magmoms:R:1 pbc="T T T"
Si      -2.37544038       0.33586722       0.24616740       0.00000000
Si      -0.50028219      -2.41073755       0.48090278       0.00000000
Si       1.24556598       0.81011799       2.03166445       0.00000000
Si       1.18957725       0.57515103      -2.94254237       0.00000000
Si       3.08056932       1.51439985      -0.96752157       0.00000000
Si       2.12698530       2.97269694       1.23166343       0.00000000
Si      -1.88618652      -3.06272267      -1.40545093       0.00000000
Si       2.67055002      -1.13274144       2.62953892       0.00000000
Si      -3.39301152      -1.41628518       1.48964163       0.00000000
Si      -1.64504565      -2.63799120       2.54338549       0.00000000
