10
Lattice="16.28999089631971 0.0 0.0 0.0 16.28999089631971 0.0 0.0 0.0 34.433804113860816" Properties=species:S:1:pos:R:3:initial_magmoms:R:1 pbc="T T T"
Si      -0.99005733       0.65599830      -2.03008049       0.00000000
Si      -0.79340445      -2.26387017      -0.24024479       0.00000000
Si       2.37359961      -0.38353176       0.28700592       0.00000000
Si      -0.69136389       1.56621834       1.75154529       0.00000000
Si      -3.18432033      -0.05647743      -1.32694182       0.00000000
Si      -1.16911701       0.04712697       3.48432415       0.00000000
Si       1.02351699      -3.31892786      -1.29154385       0.00000000
Si      -0.78902244       2.99591019      -2.16757475       0.00000000
Si       1.20765915       2.91553533       2.17232661       0.00000000
Si       2.79300195      -0.43839648       2.63566814       0.00000000
