10
Lattice="16.28999089631971 0.0 0.0 0.0 16.28999089631971 0.0 0.0 0.0 34.433804113860816" Properties=species:S:1:pos:R:3:initial_magmoms:R:1 pbc="T T T"
Si       1.82672802      -1.37321346      -0.34705851       0.00000000
Si       0.68051475       2.19609562       0.37484660       0.00000000
Si      -1.63478295       0.24329441      -1.67276070       0.00000000
Si      -0.98300376      -0.92799147       1.95973219       0.00000000
Si       0.86195277      -3.02990646      -1.73160811       0.00000000
Si      -2.94695874       2.07084182      -0.88436389       0.00000000
Si      -2.55318057       0.71336516       2.60171639       0.00000000
Si       1.78250067       2.16789763       2.46597826       0.00000000
Si      -1.29854106       3.52102648       0.04848282       0.00000000
Si       3.05510805      -1.53280659       1.70695349       0.00000000
