10
Lattice="16.28999089631971 0.0 0.0 0.0 16.28999089631971 0.0 0.0 0.0 34.433804113860816" Properties=species:S:1:pos:R:3:initial_magmoms:R:1 pbc="T T T"
Si      -1.35311256       1.35257499       1.35913744       0.00000000
Si       1.34860023       1.36115982      -1.36135154       0.00000000
Si       1.36417347      -1.36052451       1.35672707       0.00000000
Si      -1.35303111      -1.35848826      -1.37825510       0.00000000
Si       2.61669528      -0.07555302      -2.69648172       0.00000000
Si       0.10562436      -2.68539021      -2.72192487       0.00000000
Si      -2.70715039       2.71114470      -0.00165282       0.00000000
Si      -2.71016893      -0.00496845       2.71593338       0.00000000
Si       0.00431685       2.71026504       2.71586452       0.00000000
Si      -2.70962810      -2.72114676      -0.00564715       0.00000000
