10
Lattice="16.28999089631971 0.0 0.0 0.0 16.28999089631971 0.0 0.0 0.0 34.433804113860816" Properties=species:S:1:pos:R:3:initial_magmoms:R:1 pbc="T T T"
Si       1.26809505      -1.43671284      -1.33513018       0.00000000
Si      -1.34860023      -1.36115982       1.36135154       0.00000000
Si       1.37314926       1.34840475       1.36014635       0.00000000
Si      -1.35060390       1.45731969      -1.34555674       0.00000000
Si       2.06474121       0.19701126      -2.92285109       0.00000000
Si      -2.70635544       2.71230129       0.03315977       0.00000000
Si      -2.70163134      -2.71964808      -0.01690356       0.00000000
Si      -2.70171279      -0.00858483       2.72048898       0.00000000
Si       2.72997594       2.69472438      -0.01745795       0.00000000
Si       0.01119123       2.70576900       2.71966257       0.00000000
