10
Lattice="16.28999089631971 0.0 0.0 0.0 16.28999089631971 0.0 0.0 0.0 34.433804113860816" Properties=species:S:1:pos:R:3:initial_magmoms:R:1 pbc="T T T"
Si      -1.03417065      -1.70304524      -1.29729429       0.00000000
Si       1.79331723       0.99150714      -1.25993360       0.00000000
Si       0.55265454      -1.77905438       1.70313134       0.00000000
Si      -1.71659133       1.88043615       0.09799866       0.00000000
Si      -2.83147241      -1.15489421       1.45300404       0.00000000
Si      -2.33365816      -0.32327016      -2.71004520       0.00000000
Si       0.41194152       2.40842763      -2.68869623       0.00000000
Si       0.06340068       1.61953551       3.35474967       0.00000000
Si      -2.37165947      -3.18763439       0.01611503       0.00000000
Si      -3.60300396       1.16242182      -1.31809232       0.00000000
