10
Lattice="16.28999089631971 0.0 0.0 0.0 16.28999089631971 0.0 0.0 0.0 34.433804113860816" Properties=species:S:1:pos:R:3:initial_magmoms:R:1 pbc="T T T"
Si      -1.15039980       1.28014965       1.56019654       0.00000000
Si       2.24112933       0.57805065       0.30170916       0.00000000
Si      -0.20103489      -2.33991189       0.13749426       0.00000000
Si      -0.04518846       0.55107441      -2.28699125       0.00000000
Si       1.70318466      -1.09167435      -2.71228340       0.00000000
Si       2.54195676       2.57396661      -0.89438413       0.00000000
Si       3.49449822      -0.74942145      -1.14079257       0.00000000
Si       0.78902244      -2.99591019       2.16757475       0.00000000
Si       0.82176534      -3.25425330      -1.91228238       0.00000000
Si       0.01283652       3.35611467       1.99258206       0.00000000
