10
Lattice="16.28999089631971 0.0 0.0 0.0 16.28999089631971 0.0 0.0 0.0 34.433804113860816" Properties=species:S:1:pos:R:3:initial_magmoms:R:1 pbc="T T T"
Si      -1.34740359      -0.93956715      -1.61563499       0.00000000
Si      -1.06861653       0.33701567       2.07322607       0.00000000
Si       0.62076140       2.09692862      -0.89372989       0.00000000
Si       1.84062176      -1.42111584       0.59377685       0.00000000
Si       2.54746115       1.34807732      -1.94619970       0.00000000
Si       0.85587823       0.69130850       3.36483878       0.00000000
Si       2.80057517      -0.04814770       2.27924364       0.00000000
Si       0.22557089      -2.04582105      -2.98785729       0.00000000
Si      -2.59461486      -2.51026524      -0.43514023       0.00000000
Si       0.50881163       3.69370700       0.81170852       0.00000000
