10
Lattice="16.28999089631971 0.0 0.0 0.0 16.28999089631971 0.0 0.0 0.0 34.433804113860816" Properties=species:S:1:pos:R:3:initial_magmoms:R:1 pbc="T T T"
Si      -1.36041048      -1.35366642      -1.33170401       0.00000000
Si      -1.35672894       1.35285192       1.35614170       0.00000000
Si       1.35713619      -1.36019871       1.35479878       0.00000000
Si       1.35550719       1.36767582      -1.36003272       0.00000000
Si       2.59804323      -0.06284682      -2.71185298       0.00000000
Si      -0.00465894      -2.60864802      -2.71042053       0.00000000
Si      -2.72493256      -0.04500927      -2.67068045       0.00000000
Si      -0.11279196       2.62394433      -2.76923350       0.00000000
Si       0.00171045       2.71295289       2.71218010       0.00000000
Si      -2.71276067      -0.00215028       2.71262774       0.00000000
