10
Lattice="16.28999089631971 0.0 0.0 0.0 16.28999089631971 0.0 0.0 0.0 34.433804113860816" Properties=species:S:1:pos:R:3:initial_magmoms:R:1 pbc="T T T"
Si      -1.35640314      -1.35777150       1.35648604       0.00000000
Si      -1.35739683       1.35725022      -1.35779452       0.00000000
Si       1.35824391      -1.35799956      -1.35772565       0.00000000
Si       1.35928647       1.35775521       1.35796669       0.00000000
Si      -2.71448415       2.71438641      -0.00044764       0.00000000
Si      -0.00192222       2.71391400      -2.71534801       0.00000000
Si      -2.71482624      -0.00043983      -2.71452160       0.00000000
Si      -0.00500103       2.71427238       2.71558905       0.00000000
Si      -2.71480995      -2.71534752      -0.00013774       0.00000000
Si       0.00245979      -2.71353933      -2.71693196       0.00000000
