10
Lattice="16.28999089631971 0.0 0.0 0.0 16.28999089631971 0.0 0.0 0.0 34.433804113860816" Properties=species:S:1:pos:R:3:initial_magmoms:R:1 pbc="T T T"
Si      -1.35547461      -1.35666378       1.35755349       0.00000000
Si      -1.35713619       1.36019871      -1.35479878       0.00000000
Si       1.35931905       1.35812988       1.35745018       0.00000000
Si       1.36195803      -1.35736425      -1.35951621       0.00000000
Si      -2.71754667       0.00653229      -2.68650279       0.00000000
Si      -0.01119123      -2.70576900      -2.71966257       0.00000000
Si      -2.71386513       2.71305063       0.00134292       0.00000000
Si      -2.71290402      -2.71435383       0.00082641       0.00000000
Si      -2.71256193       0.00047241       2.71490037       0.00000000
Si       0.00192222      -2.71391400       2.71534801       0.00000000
