10
Lattice="16.28999089631971 0.0 0.0 0.0 16.28999089631971 0.0 0.0 0.0 34.433804113860816" Properties=species:S:1:pos:R:3:initial_magmoms:R:1 pbc="T T T"
Si       1.98045675       1.17296145      -0.33517884       0.00000000
Si       0.35875467      -2.10323448      -1.09434134       0.00000000
Si      -0.18805176      -0.20419515       2.38189086       0.00000000
Si      -1.75141935       0.73019925      -1.53543862       0.00000000
Si       0.86424966      -1.00123227      -3.14070903       0.00000000
Si       3.44585628      -0.36290862       0.76587710       0.00000000
Si       2.02748598       1.07473275      -2.70832351       0.00000000
Si      -2.36105631       0.60445674       2.69172641       0.00000000
Si      -1.71558135      -3.26005254      -0.76384550       0.00000000
Si      -3.46068995      -0.88855434       1.28606887       0.00000000
