10
Lattice="16.28999089631971 0.0 0.0 0.0 16.28999089631971 0.0 0.0 0.0 34.433804113860816" Properties=species:S:1:pos:R:3:initial_magmoms:R:1 pbc="T T T"
Si       1.85393232      -0.79522893       1.17918628       0.00000000
Si       1.35457866       1.34951247      -1.36609307       0.00000000
Si      -1.35057132      -1.37932317      -1.35955065       0.00000000
Si      -1.42677594       1.31453784       1.41664193       0.00000000
Si       1.24662483      -0.90254745       3.40054666       0.00000000
Si       2.71104696       2.68363482      -0.00130849       0.00000000
Si       0.00646713       2.69686881      -2.71996214       0.00000000
Si      -2.72626345       2.69431291       0.00389102       0.00000000
Si      -2.70964439      -0.01415601      -2.71713857       0.00000000
Si      -2.69426011      -2.73650823       0.00905610       0.00000000
