10
Lattice="16.28999089631971 0.0 0.0 0.0 16.28999089631971 0.0 0.0 0.0 34.433804113860816" Properties=species:S:1:pos:R:3:initial_magmoms:R:1 pbc="T T T"
Si      -0.45698337       2.21633595       0.46399577       0.00000000
Si       0.94449420      -0.88801677      -1.99857354       0.00000000
Si      -2.19090726      -0.94187151      -0.17261676       0.00000000
Si       1.70408061      -0.47776941       1.63712170       0.00000000
Si       1.92464721      -2.82761820       1.21234605       0.00000000
Si       1.97167644      -2.92584690      -1.16079862       0.00000000
Si      -1.80722889      -3.27038040       0.01208627       0.00000000
Si      -1.60485822       3.13114783      -1.38224254       0.00000000
Si      -1.68230088       2.30493726       2.56869435       0.00000000
Si       3.73923918       0.50831316       0.71842729       0.00000000
