10
Lattice="16.28999089631971 0.0 0.0 0.0 16.28999089631971 0.0 0.0 0.0 34.433804113860816" Properties=species:S:1:pos:R:3:initial_magmoms:R:1 pbc="T T T"
Si       0.22056660      -2.34984879      -0.42477564       0.00000000
Si      -1.70408061       0.47776941      -1.63712170       0.00000000
Si       2.03515857       0.98608257      -0.91869441       0.00000000
Si      -0.46494918       0.72270585       2.29394688       0.00000000
Si      -2.16106398       2.69410536      -1.17312593       0.00000000
Si       0.26759583      -2.44807749      -2.79792032       0.00000000
Si      -0.75958641      -0.41024736      -3.63569524       0.00000000
Si       1.06271073      -0.85457340       3.51720845       0.00000000
Si       3.68049744      -0.71241057      -0.77882422       0.00000000
Si      -3.04106607       0.78175710       2.36453622       0.00000000
