10
Lattice="16.28999089631971 0.0 0.0 0.0 16.28999089631971 0.0 0.0 0.0 34.433804113860816" Properties=species:S:1:pos:R:3:initial_magmoms:R:1 pbc="T T T"
Si      -1.94469694       0.73945621       1.08559515       0.00000000
Si       1.14787485      -0.91481188       1.84623831       0.00000000
Si      -0.95995341      -1.37296813      -1.68546679       0.00000000
Si       1.53730359       1.45907836      -1.13672938       0.00000000
Si       1.49485185       0.17451901      -3.17169947       0.00000000
Si      -2.80057517       0.04814770      -2.27924364       0.00000000
Si       2.84736168       0.65036620       2.15951723       0.00000000
Si      -1.97051496       3.04570155       0.81900849       0.00000000
Si       1.60485822      -3.13114783       1.38224254       0.00000000
Si      -1.84733487      -3.30010771      -0.69821464       0.00000000
