10
Lattice="16.28999089631971 0.0 0.0 0.0 16.28999089631971 0.0 0.0 0.0 34.433804113860816" Properties=species:S:1:pos:R:3:initial_magmoms:R:1 pbc="T T T"
Si      -1.43918892       1.28176562       1.30049664       0.00000000
Si      -1.35865116      -1.33610973      -1.36540440       0.00000000
Si       1.35731538       1.37553086      -1.36337280       0.00000000
Si       1.39421223      -1.19559738       1.58908651       0.00000000
Si       0.38851650       2.13945041       2.64496527       0.00000000
Si       2.34111735       0.74908262       2.75009174       0.00000000
Si       2.70676269      -2.69111193       0.02658291       0.00000000
Si      -2.70493821      -2.70606615       0.01845653       0.00000000
Si      -0.00369783      -2.69640618      -2.72399090       0.00000000
Si       2.71049310       0.01794669      -2.72402533       0.00000000
