10
Lattice="16.28999089631971 0.0 0.0 0.0 16.28999089631971 0.0 0.0 0.0 34.433804113860816" Properties=species:S:1:pos:R:3:initial_magmoms:R:1 pbc="T T T"
Si      -1.05230142       1.29822992      -1.61377557       0.00000000
Si      -1.84103064       0.18677951       1.44177862       0.00000000
Si       1.92857310       1.29772493       0.79421614       0.00000000
Si      -0.14763627      -2.25405612      -1.01483364       0.00000000
Si       3.30133140      -0.65952508       0.92447929       0.00000000
Si      -1.23097014       3.32407061      -0.53052192       0.00000000
Si      -1.09789713      -0.92814067       3.38394956       0.00000000
Si      -1.26711765      -3.39536610       0.71408863       0.00000000
Si       0.41723577       1.50293006      -3.44482856       0.00000000
Si      -3.74323023      -0.48264501       0.23538962       0.00000000
