10
Lattice="16.28999089631971 0.0 0.0 0.0 16.28999089631971 0.0 0.0 0.0 34.433804113860816" Properties=species:S:1:pos:R:3:initial_magmoms:R:1 pbc="T T T"
Si       0.55211697      -2.26597158      -0.37216076       0.00000000
Si       0.41940234      -0.05486472       2.34866222       0.00000000
Si       1.57716522       1.80929772      -0.28442338       0.00000000
Si      -2.37359961       0.38353176      -0.28700592       0.00000000
Si       1.16217747       0.87131952      -2.34446130       0.00000000
Si      -1.35008262      -2.93539610      -1.57854976       0.00000000
Si       0.12786021       3.68180064      -0.07162235       0.00000000
Si      -3.16700406      -1.88033841      -0.52725070       0.00000000
Si       1.34084619      -1.15452117      -3.42771495       0.00000000
Si       2.39314761      -2.45275109      -1.81393938       0.00000000
