10
Lattice="16.28999089631971 0.0 0.0 0.0 16.28999089631971 0.0 0.0 0.0 34.433804113860816" Properties=species:S:1:pos:R:3:initial_magmoms:R:1 pbc="T T T"
Si       1.35216774      -1.35747828       1.35724358       0.00000000
Si       1.33791399       1.34662914      -1.38461158       0.00000000
Si      -1.36158336       1.35685926       1.35789782       0.00000000
Si      -1.34610786      -1.36464588      -1.38003189       0.00000000
Si       2.70894555      -2.71568961      -0.00141179       0.00000000
Si       2.70961344       2.71557558      -0.00630139       0.00000000
Si       2.71081890       0.00039096       2.71531357       0.00000000
Si      -0.00408879       2.71507059       2.71558905       0.00000000
Si      -0.00368154      -2.71531494       2.71552018       0.00000000
Si      -2.71717200       2.71494027      -0.00148065       0.00000000
