10
Lattice="16.28999089631971 0.0 0.0 0.0 16.28999089631971 0.0 0.0 0.0 34.433804113860816" Properties=species:S:1:pos:R:3:initial_magmoms:R:1 pbc="T T T"
Si      -0.56547477       1.99884816       1.12688130       0.00000000
Si      -1.89902304      -1.34931699      -0.42078132       0.00000000
Si       1.29380067       0.38273355      -1.95694305       0.00000000
Si       1.55800818      -1.16877492       1.36977749       0.00000000
Si      -3.65257638       0.25852230      -0.73333714       0.00000000
Si       1.58534280      -3.35393181       0.46334153       0.00000000
Si       2.74310568      -1.48976937      -2.16974408       0.00000000
Si       3.42871920       0.30799503       1.65468295       0.00000000
Si      -0.81474435       1.44630765       3.44761770       0.00000000
Si      -1.20765915      -2.91553533      -2.17232661       0.00000000
