10
Lattice="16.28999089631971 0.0 0.0 0.0 16.28999089631971 0.0 0.0 0.0 34.433804113860816" Properties=species:S:1:pos:R:3:initial_magmoms:R:1 pbc="T T T"
Si      -2.02810500       1.18692198       0.49505508       0.00000000
Si       0.17951580      -0.61335108      -2.32965475       0.00000000
Si      -0.53353008      -2.18584107       1.00670726       0.00000000
Si       1.82117313       0.16625574       1.75003020       0.00000000
Si       2.27986695       2.71542897      -0.87324176       0.00000000
Si      -2.33864127      -2.79775863      -0.42470678       0.00000000
Si       1.54162044      -3.29818743       0.47849241       0.00000000
Si       0.02775816       1.45652148      -3.41855555       0.00000000
Si      -1.69119522      -2.09012103      -2.61456021       0.00000000
Si       3.39372828       0.54695304      -1.54724942       0.00000000
