10
Lattice="16.28999089631971 0.0 0.0 0.0 16.28999089631971 0.0 0.0 0.0 34.433804113860816" Properties=species:S:1:pos:R:3:initial_magmoms:R:1 pbc="T T T"
Si       1.86606837       0.87091227      -1.20952248       0.00000000
Si      -0.88827741      -1.84673214      -1.27542882       0.00000000
Si      -1.80975384       1.74563640      -0.00509621       0.00000000
Si       1.58891031      -1.14300414       1.64156366       0.00000000
Si      -0.54556839      -0.38778345       2.49228570       0.00000000
Si       0.42424047       2.19219417      -2.61655737       0.00000000
Si      -2.57533497      -1.51728318       1.72138126       0.00000000
Si      -2.31513480      -0.55211697      -2.63167382       0.00000000
Si      -0.76307247       3.60367380      -1.10594554       0.00000000
Si       3.41210340       1.85479569       0.36379334       0.00000000
