10
Lattice="16.28999089631971 0.0 0.0 0.0 16.28999089631971 0.0 0.0 0.0 34.433804113860816" Properties=species:S:1:pos:R:3:initial_magmoms:R:1 pbc="T T T"
Si       0.74486025      -1.61943777       1.53054901       0.00000000
Si       0.36398376      -1.69661979      -1.66322254       0.00000000
Si       2.02976658       1.12949973       0.77090444       0.00000000
Si      -1.94541696       1.19016369       1.59507800       0.00000000
Si       1.92899664      -2.82222621      -0.20326286       0.00000000
Si       2.57533497       1.51728318      -1.72138126       0.00000000
Si       1.68705756      -0.32944896      -2.99681008       0.00000000
Si      -2.82027141       1.57304385      -1.34894503       0.00000000
Si       0.76558113       3.26291958      -1.72647747       0.00000000
Si      -1.00216080      -2.58465285       2.70508673       0.00000000
