10
Lattice="16.28999089631971 0.0 0.0 0.0 16.28999089631971 0.0 0.0 0.0 34.433804113860816" Properties=species:S:1:pos:R:3:initial_magmoms:R:1 pbc="T T T"
Si      -1.70662185       1.44616104       0.64160543       0.00000000
Si      -0.40615857      -1.68968025       1.57341912       0.00000000
Si       2.24542989       0.69353046       0.34375286       0.00000000
Si      -0.72373212      -0.69458931      -2.17539122       0.00000000
Si       3.44395035      -0.22836951      -1.46812049       0.00000000
Si      -3.09902589      -0.73598220      -2.00821501       0.00000000
Si      -3.72008214       0.79451217      -0.37319378       0.00000000
Si       0.02601513      -2.98409994      -2.46869853       0.00000000
Si       1.06531713      -3.52678500       1.31289282       0.00000000
Si      -0.36733950      -1.01245608       3.79185263       0.00000000
