10
Lattice="16.28999089631971 0.0 0.0 0.0 16.28999089631971 0.0 0.0 0.0 34.433804113860816" Properties=species:S:1:pos:R:3:initial_magmoms:R:1 pbc="T T T"
Si      -0.15628626      -1.74539205       1.52669243       0.00000000
Si       0.50862267      -0.33567174      -2.25624184       0.00000000
Si       2.11335057       0.76303989       0.71804852       0.00000000
Si      -1.64533887       1.69849314      -0.13987019       0.00000000
Si       0.86291388       1.97065017      -2.65694824       0.00000000
Si       1.84790502      -2.79428886       0.89400536       0.00000000
Si       2.23125759       2.57419467      -0.81201842       0.00000000
Si      -0.68056362       3.35518614       1.24467941       0.00000000
Si      -1.50483762      -0.98732061      -3.27104105       0.00000000
Si      -1.39791006       2.59814097      -2.43064916       0.00000000
