10
Lattice="16.28999089631971 0.0 0.0 0.0 16.28999089631971 0.0 0.0 0.0 34.433804113860816" Properties=species:S:1:pos:R:3:initial_magmoms:R:1 pbc="T T T"
Si       0.84058029      -0.63073251       2.18152044       0.00000000
Si      -1.76388120       1.73082879      -0.01322259       0.00000000
Si      -0.67194621      -2.01771198      -1.41065044       0.00000000
Si       1.51927056       0.73137213      -1.95894021       0.00000000
Si      -0.74857437       0.10981089      -2.50619697       0.00000000
Si      -3.08177478       0.90401355      -1.92223376       0.00000000
Si      -0.72537741       3.77385543      -0.68302932       0.00000000
Si      -1.04474286      -1.69217262       3.41581603       0.00000000
Si       1.35615879      -3.20463396      -1.90570552       0.00000000
Si       1.78434144       1.19985624       3.46273212       0.00000000
