10
Lattice="16.28999089631971 0.0 0.0 0.0 16.28999089631971 0.0 0.0 0.0 34.433804113860816" Properties=species:S:1:pos:R:3:initial_magmoms:R:1 pbc="T T T"
Si      -1.03850379      -2.04302664       0.66980673       0.00000000
Si       0.80920575       0.46791396      -2.23654569       0.00000000
Si       2.07244638       0.59991183       1.20246355       0.00000000
Si      -2.04921684       1.42633611       0.26610459       0.00000000
Si       0.87941565       1.70674307       3.02522285       0.00000000
Si      -1.86277779      -1.14639246       2.89191905       0.00000000
Si       2.98030437       2.22866978      -0.34712737       0.00000000
Si       1.42579854       2.79139968      -2.03803470       0.00000000
Si       2.53421901      -1.11974202      -2.63508277       0.00000000
Si       0.72537741      -3.77385543       0.68302932       0.00000000
