10
Lattice="16.28999089631971 0.0 0.0 0.0 16.28999089631971 0.0 0.0 0.0 34.433804113860816" Properties=species:S:1:pos:R:3:initial_magmoms:R:1 pbc="T T T"
Si      -1.35661491      -1.35519492      -1.35703698       0.00000000
Si      -1.35317772       1.35758417       1.36065253       0.00000000
Si       1.35845555      -1.35466775       1.35879310       0.00000000
Si       1.35867667       1.35978332      -1.35693368       0.00000000
Si       2.70025225      -0.00159968       2.72230364       0.00000000
Si       2.71687131      -2.71006860       0.00127405       0.00000000
Si       0.00099369      -2.71252839      -2.71455603       0.00000000
Si      -2.71394658       0.00288985      -2.71424613       0.00000000
Si      -2.71419093      -2.71435287       0.00003443       0.00000000
Si       2.71346181       2.71747337       0.00034434       0.00000000
