10
Lattice="16.28999089631971 0.0 0.0 0.0 16.28999089631971 0.0 0.0 0.0 34.433804113860816" Properties=species:S:1:pos:R:3:initial_magmoms:R:1 pbc="T T T"
Si       1.92449475       0.35429284       1.29161271       0.00000000
Si       1.06861653      -0.33701567      -2.07322607       0.00000000
Si      -0.95361660      -1.90874884       1.07888055       0.00000000
Si      -1.37275830       1.95725002      -0.13026315       0.00000000
Si       1.89867673       2.66053819       1.02502605       0.00000000
Si      -3.30133140       0.65952508      -0.92447929       0.00000000
Si      -0.37693431       3.04532428       1.79947717       0.00000000
Si      -0.38926584      -3.55122067      -0.50269939       0.00000000
Si       2.90923829      -1.75813150      -1.47944922       0.00000000
Si       1.68937793       1.75991296      -2.96695596       0.00000000
