10
Lattice="16.28999089631971 0.0 0.0 0.0 16.28999089631971 0.0 0.0 0.0 34.433804113860816" Properties=species:S:1:pos:R:3:initial_magmoms:R:1 pbc="T T T"
Si       0.33581835       1.86927750       1.38224254       0.00000000
Si       0.79273656       0.92336607      -2.02925408       0.00000000
Si       1.60803477      -1.40333789       1.10646205       0.00000000
Si      -2.34751932      -0.62063271      -0.03911682       0.00000000
Si       2.68227135       1.98964431       1.78281120       0.00000000
Si       0.43816842      -2.73055328       2.66975763       0.00000000
Si       0.83507427       3.29569506      -1.79661917       0.00000000
Si      -0.04064355       3.89617704       0.32760340       0.00000000
Si       2.78141391      -2.78631395      -0.40363328       0.00000000
Si      -0.20308743      -0.16470819      -3.95899441       0.00000000
