10
Lattice="16.28999089631971 0.0 0.0 0.0 16.28999089631971 0.0 0.0 0.0 34.433804113860816" Properties=species:S:1:pos:R:3:initial_magmoms:R:1 pbc="T T T"
Si       1.35346327       1.34330598      -1.35600396       0.00000000
Si      -1.49327172       1.19948157       1.36440582       0.00000000
Si      -1.35992178      -1.37375199      -1.34901390       0.00000000
Si       1.42416239      -1.24724385       1.40459009       0.00000000
Si      -0.37611981      -2.00020023       2.76445064       0.00000000
Si      -2.32872066      -0.60983244       2.65932418       0.00000000
Si      -0.17141967       2.52270198       2.77099307       0.00000000
Si       2.70609547       2.67724521       0.01656267       0.00000000
Si      -0.00335574       2.70034443      -2.70983860       0.00000000
Si      -2.71674846       2.69576694       0.00309904       0.00000000
