10
Lattice="16.28999089631971 0.0 0.0 0.0 16.28999089631971 0.0 0.0 0.0 34.433804113860816" Properties=species:S:1:pos:R:3:initial_magmoms:R:1 pbc="T T T"
Si       1.32185205       1.32322041       1.40658725       0.00000000
Si       1.49327172      -1.19948157      -1.36440582       0.00000000
Si      -1.22347674       1.49628537      -1.36130677       0.00000000
Si      -0.83544894      -1.80931401       1.29491836       0.00000000
Si      -0.18616212       1.33175637       3.26925049       0.00000000
Si      -2.27256903       0.40964463       2.79017271       0.00000000
Si       1.11715191      -3.19968180       1.40004482       0.00000000
Si       0.13334994      -2.57323356      -2.71341971       0.00000000
Si      -2.58844842       0.14543712      -2.71810271       0.00000000
Si      -2.66315436      -2.66699880      -0.04955027       0.00000000
