10
Lattice="16.28999089631971 0.0 0.0 0.0 16.28999089631971 0.0 0.0 0.0 34.433804113860816" Properties=species:S:1:pos:R:3:initial_magmoms:R:1 pbc="T T T"
Si      -1.81620468       0.85722867      -1.17050896       0.00000000
Si      -0.87571782       0.60048198       2.12422256       0.00000000
Si      -0.04233771      -2.37232899      -0.23263491       0.00000000
Si       2.09871956       0.91675233      -0.77031906       0.00000000
Si      -0.49925592      -1.42641756       3.17886170       0.00000000
Si      -1.13109615       0.70648101      -3.35981145       0.00000000
Si       1.99068428       3.05825202       0.16903564       0.00000000
Si       2.23327333      -2.75711508      -1.00708603       0.00000000
Si      -0.83507427      -3.29569506       1.79661917       0.00000000
Si      -0.41381487      -1.59550776      -3.54344703       0.00000000
