10
Lattice="16.28999089631971 0.0 0.0 0.0 16.28999089631971 0.0 0.0 0.0 34.433804113860816" Properties=species:S:1:pos:R:3:initial_magmoms:R:1 pbc="T T T"
Si      -0.37646190       2.02689954      -1.05463914       0.00000000
Si      -0.33581835      -1.86927750      -1.38224254       0.00000000
Si      -1.23574311       0.04326624       2.02663711       0.00000000
Si       2.34645300       0.12036681       0.40056867       0.00000000
Si       0.49925592       1.42641756      -3.17886170       0.00000000
Si       1.27221642      -3.27261539      -0.27578049       0.00000000
Si       2.26895169       1.14919434       2.48942769       0.00000000
Si       0.45691821      -0.94591143      -3.41149662       0.00000000
Si       3.10551487      -2.08313262       0.70000520       0.00000000
Si      -2.59784775       2.72810259      -0.78151005       0.00000000
