10
Lattice="16.28999089631971 0.0 0.0 0.0 16.28999089631971 0.0 0.0 0.0 34.433804113860816" Properties=species:S:1:pos:R:3:initial_magmoms:R:1 pbc="T T T"
Si      -0.48769002       0.72912411       2.23523721       0.00000000
Si       1.04122422      -2.24215560       0.34747171       0.00000000
Si       2.22765750      -0.25668153      -1.14351284       0.00000000
Si      -1.82117313      -0.16625574      -1.75003020       0.00000000
Si      -2.35470321      -2.35209681      -0.74332294       0.00000000
Si       1.57255515       0.38069730      -3.29727962       0.00000000
Si       0.45869382       2.54917323      -2.62327196       0.00000000
Si      -0.27955269      -3.46444317      -1.27153780       0.00000000
Si      -1.34332227      -1.11623967       3.54659569       0.00000000
Si       3.22514211      -2.35851507      -0.80874721       0.00000000
