10
Lattice="16.28999089631971 0.0 0.0 0.0 16.28999089631971 0.0 0.0 0.0 34.433804113860816" Properties=species:S:1:pos:R:3:initial_magmoms:R:1 pbc="T T T"
Si      -1.35263220      -1.33393923      -1.37256663       0.00000000
Si      -1.46668711       1.26729684       1.32084703       0.00000000
Si       1.36020523       1.38259746      -1.36619638       0.00000000
Si       1.41609622      -1.26856746       1.50696185       0.00000000
Si       0.27892390       2.32927452       2.48811921       0.00000000
Si       2.16375835       0.76432680       2.66758830       0.00000000
Si      -2.70609547      -2.67724521      -0.01656267       0.00000000
Si       2.73301240      -2.67848325       0.01742351       0.00000000
Si       0.00062228      -2.69110800      -2.72588476       0.00000000
Si      -2.70945121       0.02309922      -2.72640127       0.00000000
