10
Lattice="16.28999089631971 0.0 0.0 0.0 16.28999089631971 0.0 0.0 0.0 34.433804113860816" Properties=species:S:1:pos:R:3:initial_magmoms:R:1 pbc="T T T"
Si      -1.35692442       1.35725022       1.35755349       0.00000000
Si       1.35803311      -1.35739683       1.35679594       0.00000000
Si       1.35846717       1.35808101      -1.35731245       0.00000000
Si      -1.35612621      -1.35987291      -1.35793226       0.00000000
Si       0.00004887       2.71207323      -2.71476263       0.00000000
Si       2.71498818      -0.00022806       2.71448716       0.00000000
Si      -2.71464705       2.71487511      -0.00010330       0.00000000
Si      -2.71469592      -2.71511946      -0.00027547       0.00000000
Si       0.00250866      -2.71572219       2.71438386       0.00000000
Si      -0.00161271      -2.71490769      -2.71534801       0.00000000
