10
Lattice="16.28999089631971 0.0 0.0 0.0 16.28999089631971 0.0 0.0 0.0 34.433804113860816" Properties=species:S:1:pos:R:3:initial_magmoms:R:1 pbc="T T T"
Si       1.80990045       1.53947016      -0.28810780       0.00000000
Si       1.29466404      -1.47584142      -1.52011557       0.00000000
Si      -1.43027829       1.50899157      -1.36017046       0.00000000
Si      -0.44349525      -0.92062935       2.50268472       0.00000000
Si      -1.94932656       2.67322158       0.63737007       0.00000000
Si       2.75316868       1.07453727       1.75887970       0.00000000
Si       2.29008078       0.03038085      -3.09921627       0.00000000
Si       1.36976094      -2.36810988       2.71665649       0.00000000
Si      -0.25137099      -2.45972484      -3.09343139       0.00000000
Si       1.18019421       2.18079117       3.13110199       0.00000000
