10
Lattice="16.28999089631971 0.0 0.0 0.0 16.28999089631971 0.0 0.0 0.0 34.433804113860816" Properties=species:S:1:pos:R:3:initial_magmoms:R:1 pbc="T T T"
Si       1.43749380      -1.18341963      -1.40335047       0.00000000
Si       1.36748916       1.38303729       1.31764468       0.00000000
Si      -0.99541674      -1.50622227       1.57910071       0.00000000
Si      -1.29849219       1.53994257      -1.38021094       0.00000000
Si      -0.48018033       1.50908931       2.81110847       0.00000000
Si      -2.54145177      -2.49010569       0.00578488       0.00000000
Si       0.06944427      -2.53868247      -2.76968458       0.00000000
Si       2.90943377      -2.48016879       0.01225844       0.00000000
Si      -2.65605192       0.17997192      -2.77529729       0.00000000
Si      -2.29008078      -0.03038085       3.09921627       0.00000000
