10
Lattice="16.28999089631971 0.0 0.0 0.0 16.28999089631971 0.0 0.0 0.0 34.433804113860816" Properties=species:S:1:pos:R:3:initial_magmoms:R:1 pbc="T T T"
Si       1.79014068       0.50906250       1.45892666       0.00000000
Si       0.74420865      -0.22628439      -2.23950700       0.00000000
Si      -1.00089995       2.14521381      -0.18959263       0.00000000
Si      -1.44584990      -1.62772938       1.00009597       0.00000000
Si      -1.52335120      -0.59890185       3.08895499       0.00000000
Si       0.73295226       0.00342090       3.50185097       0.00000000
Si      -1.19432741       0.59507370      -3.34965347       0.00000000
Si       2.27173824       2.82957300       0.90622936       0.00000000
Si       0.09873369       3.63822489       1.21606491       0.00000000
Si      -1.30236269       2.73657339      -2.41029877       0.00000000
