10
Lattice="16.28999089631971 0.0 0.0 0.0 16.28999089631971 0.0 0.0 0.0 34.433804113860816" Properties=species:S:1:pos:R:3:initial_magmoms:R:1 pbc="T T T"
Si       0.07750130      -1.02882753      -2.08885903       0.00000000
Si      -0.99748461       2.10183354      -0.33476563       0.00000000
Si       2.25630346       0.60232275       0.41289598       0.00000000
Si      -2.18391789       0.11635947       1.15621892       0.00000000
Si      -0.55525998      -0.32421987       2.90631799       0.00000000
Si       2.50394404      -1.85561019       1.14206662       0.00000000
Si       1.52335120       0.59890185      -3.08895499       0.00000000
Si      -2.26895169      -1.14919434      -2.48942769       0.00000000
Si      -3.50469480      -1.10592810      -0.46279059       0.00000000
Si       0.83656318      -3.23232696      -1.78942250       0.00000000
