10
Lattice="16.28999089631971 0.0 0.0 0.0 16.28999089631971 0.0 0.0 0.0 34.433804113860816" Properties=species:S:1:pos:R:3:initial_magmoms:R:1 pbc="T T T"
Si       1.00833471      -0.26797050      -2.05904006       0.00000000
Si       1.83153357       0.91227258       1.10833938       0.00000000
Si      -0.92901707      -1.94189832       0.98374059       0.00000000
Si      -1.69019176       1.76161689      -0.24881643       0.00000000
Si       0.47578203       2.16725418       2.48705589       0.00000000
Si      -2.25087794      -0.56133711       2.43777420       0.00000000
Si      -0.99159348       0.74551185      -3.20830335       0.00000000
Si       3.21303960       0.81550998      -1.73804796       0.00000000
Si       2.64632679       2.65662207      -0.25683879       0.00000000
Si      -0.88874005       3.47591133       1.14807945       0.00000000
