10
Lattice="16.28999089631971 0.0 0.0 0.0 16.28999089631971 0.0 0.0 0.0 34.433804113860816" Properties=species:S:1:pos:R:3:initial_magmoms:R:1 pbc="T T T"
Si       1.23908256      -1.40978547      -1.42332209       0.00000000
Si      -1.47193997       1.29674916      -1.41560891       0.00000000
Si      -1.21243212      -1.82296503       1.07127068       0.00000000
Si       1.74905730       0.86617188       1.64135706       0.00000000
Si      -2.27358878      -0.68256729       2.76166150       0.00000000
Si       0.67240233      -3.38791275       1.25073977       0.00000000
Si       2.57772960      -2.69842221       0.02258859       0.00000000
Si       2.57895135      -0.05626566      -2.78425009       0.00000000
Si      -2.90943377       2.48016879      -0.01225844       0.00000000
Si      -0.12825117       2.65393422      -2.78421566       0.00000000
