10
Lattice="16.28999089631971 0.0 0.0 0.0 16.28999089631971 0.0 0.0 0.0 34.433804113860816" Properties=species:S:1:pos:R:3:initial_magmoms:R:1 pbc="T T T"
Si       2.22881409       0.55687365      -0.38572769       0.00000000
Si      -1.20880108       1.54974915       1.30125418       0.00000000
Si      -1.68429803      -0.52553169      -1.58164881       0.00000000
Si       0.25964631      -1.92557574       1.38782082       0.00000000
Si       0.91992888      -0.49163220       3.14484109       0.00000000
Si       2.52477081      -2.13684075      -1.21723566       0.00000000
Si      -3.23202464      -1.46394972      -0.16397387       0.00000000
Si      -3.24046286       0.23871366       1.46030401       0.00000000
Si      -1.01102093       0.71206848       3.49107318       0.00000000
Si       2.33834805       1.02320748      -2.70195325       0.00000000
