10
Lattice="16.28999089631971 0.0 0.0 0.0 16.28999089631971 0.0 0.0 0.0 34.433804113860816" Properties=species:S:1:pos:R:3:initial_magmoms:R:1 pbc="T T T"
Si      -1.00833471       0.26797050       2.05904006       0.00000000
Si      -0.44616681      -2.15475975      -0.96579988       0.00000000
Si       2.20470489       1.08348048       0.32099210       0.00000000
Si      -1.99992819       1.01348235      -1.14926329       0.00000000
Si       0.82319886       1.18024308       3.16737944       0.00000000
Si       0.61102161      -1.64911815      -3.00872418       0.00000000
Si      -1.08038538       1.48004424      -3.25158594       0.00000000
Si       1.09261917       0.67139235      -3.56142148       0.00000000
Si       1.63799208       2.92459257       1.80220127       0.00000000
Si       2.84359869       1.47979989      -2.08817035       0.00000000
