10
Lattice="16.28999089631971 0.0 0.0 0.0 16.28999089631971 0.0 0.0 0.0 34.433804113860816" Properties=species:S:1:pos:R:3:initial_magmoms:R:1 pbc="T T T"
Si       1.34179670       1.35306807       1.36351054       0.00000000
Si       1.35841575      -1.35540085      -1.35751905       0.00000000
Si      -1.35845555       1.35466775      -1.35879310       0.00000000
Si      -1.36218596      -1.35439087       1.39181514       0.00000000
Si       2.64128420      -0.02670700       2.77626144       0.00000000
Si      -2.71163327       2.71225191       0.00185943       0.00000000
Si       2.71471952       2.71410897       0.00547498       0.00000000
Si       0.00022112       2.71445106      -2.71572678       0.00000000
Si      -2.71507046      -0.00052717      -2.71583008       0.00000000
Si       0.00037033      -2.71597423      -2.71593338       0.00000000
