10
Lattice="16.28999089631971 0.0 0.0 0.0 16.28999089631971 0.0 0.0 0.0 34.433804113860816" Properties=species:S:1:pos:R:3:initial_magmoms:R:1 pbc="T T T"
Si       1.35596331      -1.35239580      -1.35776009       0.00000000
Si      -1.34368880      -1.35718506       1.36860674       0.00000000
Si      -1.35907307       1.36516716      -1.35758792       0.00000000
Si       1.35057132       1.37932317       1.35955065       0.00000000
Si       2.70720252      -2.71019988      -0.00003443       0.00000000
Si      -2.71173833      -2.71244790       0.00227263       0.00000000
Si      -0.00228060      -2.71008585      -2.71607112       0.00000000
Si       2.71259451       0.00488700      -2.71613999       0.00000000
Si      -2.71711849       0.00459378      -2.71600225       0.00000000
Si       2.70514998       2.72883564      -0.00654243       0.00000000
