10
Lattice="16.28999089631971 0.0 0.0 0.0 16.28999089631971 0.0 0.0 0.0 34.433804113860816" Properties=species:S:1:pos:R:3:initial_magmoms:R:1 pbc="T T T"
Si      -1.35971327       1.35803214      -1.36392374       0.00000000
Si       1.35980775      -1.35848500      -1.36581760       0.00000000
Si      -1.37292283      -1.36104090       1.35803556       0.00000000
Si       1.37267685       1.37065689       1.37938453       0.00000000
Si      -2.64226863       0.12465108       2.74998843       0.00000000
Si       2.70791928      -2.70584135      -0.01194854       0.00000000
Si       2.71327869       2.71360449      -0.00540611       0.00000000
Si      -2.71296775       2.71520091      -0.01060562       0.00000000
Si      -2.71471952      -2.71410897      -0.00547498       0.00000000
Si      -2.71449841       0.00034209      -2.72120176       0.00000000
