10
Lattice="16.28999089631971 0.0 0.0 0.0 16.28999089631971 0.0 0.0 0.0 34.433804113860816" Properties=species:S:1:pos:R:3:initial_magmoms:R:1 pbc="T T T"
Si      -1.40101493       0.84381453      -1.72513455       0.00000000
Si       0.47628702       1.86609185       1.42008531       0.00000000
Si      -1.84560324      -1.52780652       0.37842772       0.00000000
Si       1.98311202       0.21965436      -1.47500726       0.00000000
Si       1.22785875      -1.54337976       2.23138062       0.00000000
Si       2.22425289       0.64438583       2.47382917       0.00000000
Si      -2.78887148      -1.06287363      -1.66855978       0.00000000
Si       3.36901635       0.87163947       0.41134645       0.00000000
Si      -0.94120199      -1.18892565      -3.16202357       0.00000000
Si      -3.41857772      -0.42155262       1.75065001       0.00000000
