10
Lattice="16.28999089631971 0.0 0.0 0.0 16.28999089631971 0.0 0.0 0.0 34.433804113860816" Properties=species:S:1:pos:R:3:initial_magmoms:R:1 pbc="T T T"
Si      -1.82419330       0.01220121       1.46553796       0.00000000
Si       0.38367837      -2.32850889       0.18470303       0.00000000
Si       2.19090726       0.94187151       0.17261676       0.00000000
Si      -1.26128583       0.77291163      -1.90784042       0.00000000
Si       3.13540146       0.05385474      -1.82595678       0.00000000
Si       1.73392389       3.15820746       0.63661253       0.00000000
Si      -0.93003357      -0.35678358       3.63314714       0.00000000
Si      -1.14292106      -0.89394633      -3.48818074       0.00000000
Si      -3.32266220      -1.70953776       0.66412515       0.00000000
Si      -1.62705497      -3.35590290       0.78550438       0.00000000
