10
Lattice="10.86 0.0 0.0 0.0 10.86 0.0 0.0 0.0 10.86" Properties=species:S:1:pos:R:3:initial_magmoms:R:1 pbc="T T T"
Si       1.06820046      -1.37080350       1.63406076       0.00000000
Si      -1.33557366       0.77146182       1.91467230       0.00000000
Si      -1.37033652      -1.91663796      -1.13823660       0.00000000
Si      -0.50621718       1.66651044      -2.11737420       0.00000000
Si      -2.87315418      -0.43797294      -2.27613654       0.00000000
Si      -2.87315418       2.27702706       0.43886346       0.00000000
Si      -0.15815418      -3.15297294      -2.27613654       0.00000000
Si      -0.15815418       2.27702706       3.15386346       0.00000000
Si      -1.35341664       3.62687076      -0.88845660       0.00000000
Si       2.55684582      -3.15297294       0.43886346       0.00000000
