10
Lattice="10.86 0.0 0.0 0.0 10.86 0.0 0.0 0.0 10.86" Properties=species:S:1:pos:R:3:initial_magmoms:R:1 pbc="T T T"
Si       1.26032472      -1.22513832      -1.44813756       0.00000000
Si      -1.45467528      -1.22513832       1.26686244       0.00000000
Si      -1.45467528       1.48986168      -1.44813756       0.00000000
Si      -2.66685762       0.01119666       2.40476238       0.00000000
Si       2.35300362       2.74828590       0.03724980       0.00000000
Si       2.61782472      -2.58263832      -0.09063756       0.00000000
Si      -0.09717528      -2.58263832       2.62436244       0.00000000
Si      -0.09717528      -2.58263832      -2.80563756       0.00000000
Si      -2.81217528      -2.58263832      -0.09063756       0.00000000
Si       2.61782472       0.13236168      -2.80563756       0.00000000
