10
Lattice="10.86 0.0 0.0 0.0 10.86 0.0 0.0 0.0 10.86" Properties=species:S:1:pos:R:3:initial_magmoms:R:1 pbc="T T T"
Si       1.34758482      -1.26664524      -1.15403790       0.00000000
Si      -1.36741518       1.44835476      -1.15403790       0.00000000
Si      -1.36741518      -1.26664524       1.56096210       0.00000000
Si      -0.00991518      -2.62414524      -2.51153790       0.00000000
Si       2.70508482       0.09085476      -2.51153790       0.00000000
Si      -2.72491518       0.09085476      -2.51153790       0.00000000
Si      -0.00991518       2.80585476      -2.51153790       0.00000000
Si       2.70508482      -2.62414524       0.20346210       0.00000000
Si      -2.72491518      -2.62414524       0.20346210       0.00000000
Si       2.66048280       2.73129000       0.48403020       0.00000000
