10
Lattice="10.86 0.0 0.0 0.0 10.86 0.0 0.0 0.0 10.86" Properties=species:S:1:pos:R:3:initial_magmoms:R:1 pbc="T T T"
Si       1.35750000       1.35750000       1.35750000       0.00000000
Si      -1.35750000       1.35750000      -1.35750000       0.00000000
Si       1.35750000      -1.35750000      -1.35750000       0.00000000
Si      -1.35750000      -1.35750000       1.35750000       0.00000000
Si      -0.04431966       2.44974450      -2.81220786       0.00000000
Si      -0.03601176      -2.57983644       2.70465042       0.00000000
Si      -2.42238816      -2.86905996       0.17377086       0.00000000
Si       2.65553064      -2.66597796      -0.07663902       0.00000000
Si       2.58144372       2.82487062      -0.01964574       0.00000000
Si       2.71500000       0.00000000       2.71500000       0.00000000
