10
Lattice="10.86 0.0 0.0 0.0 10.86 0.0 0.0 0.0 10.86" Properties=species:S:1:pos:R:3:initial_magmoms:R:1 pbc="T T T"
Si       1.40181966      -1.09224450      -1.26029214       0.00000000
Si      -1.31318034      -1.09224450       1.45470786       0.00000000
Si      -1.31318034       1.62275550      -1.26029214       0.00000000
Si       0.04431966      -2.44974450      -2.61779214       0.00000000
Si      -2.67068034      -2.44974450       0.09720786       0.00000000
Si       2.75931966      -2.44974450       0.09720786       0.00000000
Si       0.04431966      -2.44974450       2.81220786       0.00000000
Si      -2.67068034       0.26525550      -2.61779214       0.00000000
Si       2.75931966       0.26525550      -2.61779214       0.00000000
Si       2.62576338       0.37512612       2.79256212       0.00000000
