10
Lattice="16.290000149 0.0 0.0 0.0 16.290000149 0.0 0.0 0.0 29.1751946751" Properties=species:S:1:pos:R:3:initial_magmoms:R:1 pbc="T T T"
Si       1.61934004      -0.15377760      -1.67567731       0.00000000
Si      -0.46279890       2.27200053      -0.30143811       0.00000000
Si       0.25223436      -0.49085028       2.30260731       0.00000000
Si      -1.89760583      -1.28821321      -0.63406451       0.00000000
H        1.33669225      -2.20457459       1.51480528       0.00000000
H       -2.77912290      -0.43256466      -1.52107795       0.00000000
Si      -1.49475412       1.05077017       2.75799826       0.00000000
Si       0.05647743      -0.92874178      -3.27170633       0.00000000
Si      -2.34307217       2.28409911       1.04502630       0.00000000
Si      -0.85931380      -2.76729636      -2.10618648       0.00000000
