10
Lattice="16.290000149 0.0 0.0 0.0 16.290000149 0.0 0.0 0.0 29.1751946751" Properties=species:S:1:pos:R:3:initial_magmoms:R:1 pbc="T T T"
Si       1.34379469       1.35569454      -1.36496148       0.00000000
Si      -1.35580042      -1.36276440      -1.35110327       0.00000000
Si       1.39053070      -1.34831517       1.33234362       0.00000000
Si      -1.38419389       1.35525471       1.33374402       0.00000000
Si       0.02656899      -2.69828377       2.68184224       0.00000000
Si      -0.02796993       2.72322376       2.67052227       0.00000000
Si       2.70216893      -0.00253309      -2.70384034       0.00000000
Si      -2.70125181      -0.00166810      -2.70634941       0.00000000
Si       2.71837748       2.70308932      -0.02348603       0.00000000
Si       2.71011845      -2.71687066      -0.05181515       0.00000000
