10
Lattice="16.290000149 0.0 0.0 0.0 16.290000149 0.0 0.0 0.0 29.1751946751" Properties=species:S:1:pos:R:3:initial_magmoms:R:1 pbc="T T T"
Si      -1.34289874       1.35778780      -1.36857921       0.00000000
Si       1.32769366      -1.34889346      -1.39544956       0.00000000
Si       1.34829562       1.37828062       1.35119079       0.00000000
Si      -1.34470693      -1.37111302       1.36280252       0.00000000
Si       2.66654270      -2.70808220      -0.03244282       0.00000000
Si      -2.68708439       2.72274320      -0.01785522       0.00000000
Si      -2.70992297      -2.71148681      -0.00901514       0.00000000
Si       2.71894763       0.03601719       2.70772064       0.00000000
Si      -2.72811891      -0.02748123       2.69899726       0.00000000
Si      -2.71353935       0.00928530      -2.72338772       0.00000000
