10
Lattice="16.290000149 0.0 0.0 0.0 16.290000149 0.0 0.0 0.0 29.1751946751" Properties=species:S:1:pos:R:3:initial_magmoms:R:1 pbc="T T T"
Si       1.14927580       0.13406670      -2.05670535       0.00000000
Si      -0.91579123      -1.83855458       1.16551985       0.00000000
Si       1.56286261       0.77496418       1.59602902       0.00000000
Si      -1.92868715       1.49693698      -0.31258304       0.00000000
Si      -1.95408326      -0.35947143       2.63764183       0.00000000
H       -2.83560033       0.49617711       1.75062838       0.00000000
Si      -0.05647743       0.92874178       3.27170633       0.00000000
H        1.86245201      -2.86241367      -0.13645239       0.00000000
Si       2.39476034       2.71332270       0.58551698       0.00000000
Si       2.67685427       1.97967485      -1.62330783       0.00000000
