10
Lattice="16.290000149 0.0 0.0 0.0 16.290000149 0.0 0.0 0.0 29.1751946751" Properties=species:S:1:pos:R:3:initial_magmoms:R:1 pbc="T T T"
Si       1.31704651       1.35840682       1.34258119       0.00000000
Si      -1.37327959       1.26252388      -1.42011719       0.00000000
Si       1.28505295      -1.45220464      -1.32294045       0.00000000
Si      -1.42641757      -1.39263211       1.27824989       0.00000000
Si      -2.18123102      -0.59566015      -2.60507268       0.00000000
Si      -0.54696933      -2.33096870      -2.52109567       0.00000000
Si       2.62578512       2.64937304      -0.12695878       0.00000000
Si       2.63487494      -0.03280806       2.68434839       0.00000000
Si      -0.10205685       2.68938128       2.64417415       0.00000000
Si       2.52804512      -2.82027144       0.09755893       0.00000000
