10
Lattice="16.290000149 0.0 0.0 0.0 16.290000149 0.0 0.0 0.0 29.1751946751" Properties=species:S:1:pos:R:3:initial_magmoms:R:1 pbc="T T T"
Si      -1.33216363       1.36632376      -1.37170095       0.00000000
Si       1.37015843       1.37185585       1.33068063       0.00000000
Si       1.36970882      -1.34024347      -1.37987001       0.00000000
Si      -1.37902996      -1.32651100       1.38908937       0.00000000
Si      -2.63668313      -2.69495246      -0.06570254       0.00000000
Si       0.06036224      -2.67538817       2.67519030       0.00000000
Si      -0.02627577       2.70914105       2.67866215       0.00000000
Si      -2.70321149       2.70599708      -0.00612679       0.00000000
Si      -2.66405033       0.01127268      -2.75460518       0.00000000
Si       2.77650021       0.03375288       2.66337435       0.00000000
