10
Lattice="16.290000149 0.0 0.0 0.0 16.290000149 0.0 0.0 0.0 29.1751946751" Properties=species:S:1:pos:R:3:initial_magmoms:R:1 pbc="T T T"
Si      -2.30870027      -0.08731929       0.35433274       0.00000000
H       -0.90878653       1.57042117      -1.49044400       0.00000000
Si       0.97318090      -0.40413210      -2.15234164       0.00000000
Si       1.02705193       2.15054066       0.39021823       0.00000000
Si       0.05799240      -2.06881373       1.28779309       0.00000000
H       -2.93358468       1.20344005      -0.10724802       0.00000000
Si       2.84648205       1.26517915       1.53902069       0.00000000
Si       2.89204518      -1.46302772      -1.37318889       0.00000000
Si       3.53229105      -0.78636881       0.77314266       0.00000000
Si      -3.15503094      -1.75166372      -1.03779085       0.00000000
