10
Lattice="16.290000149 0.0 0.0 0.0 16.290000149 0.0 0.0 0.0 29.1751946751" Properties=species:S:1:pos:R:3:initial_magmoms:R:1 pbc="T T T"
Si       1.41696123       1.43521417       1.17494344       0.00000000
Si       1.43510503      -1.24929640      -1.36385283       0.00000000
Si      -1.29225313       1.41382540      -1.35515862       0.00000000
Si      -1.64915075      -1.05062356       1.41330478       0.00000000
H        0.23925286      -2.69078222       1.70531930       0.00000000
H       -1.10719873       1.38945556       2.82978966       0.00000000
Si      -0.07599285       2.49935843       2.60659942       0.00000000
Si      -2.62392806       2.48502323       0.26733231       0.00000000
Si       0.07749902      -2.66062943      -2.67574463       0.00000000
Si      -3.32301342       0.62488441       1.67982018       0.00000000
