10
Lattice="16.290000149 0.0 0.0 0.0 16.290000149 0.0 0.0 0.0 29.1751946751" Properties=species:S:1:pos:R:3:initial_magmoms:R:1 pbc="T T T"
Si      -1.44553144       1.38846187      -1.22525606       0.00000000
Si      -1.30046899      -1.29116496       1.46995426       0.00000000
Si       1.36278965       1.39631365       1.31482975       0.00000000
Si       1.43076945      -1.30215419      -1.35999878       0.00000000
Si      -2.62404780      -2.63269762       0.13668870       0.00000000
Si      -0.12387486       2.70578531      -2.60399612       0.00000000
Si       0.08855016      -2.52171564      -2.83933870       0.00000000
Si       2.70924938      -2.67714749       0.02766392       0.00000000
Si       2.65617656       0.04241916       2.74549377       0.00000000
Si       0.01076215       2.72282465       2.72037392       0.00000000
