10
Lattice="16.290000149 0.0 0.0 0.0 16.290000149 0.0 0.0 0.0 29.1751946751" Properties=species:S:1:pos:R:3:initial_magmoms:R:1 pbc="T T T"
Si       1.38018655       1.31781214      -1.36283169       0.00000000
Si      -1.37293750      -1.32626665      -1.36443633       0.00000000
Si       1.35588187      -1.36998901       1.33917061       0.00000000
Si      -1.36909306       1.37945350       1.32207395       0.00000000
Si      -0.05395248       2.63643878      -2.64519820       0.00000000
Si       0.04616586      -2.65724111      -2.66602929       0.00000000
Si       2.72653877      -0.00884547       2.66661279       0.00000000
Si      -2.72932437       0.01700676       2.66600011       0.00000000
Si      -0.01479132       2.73258237       2.68312595       0.00000000
Si      -0.00011403      -2.72554508       2.69677994       0.00000000
