10
Lattice="16.290000149 0.0 0.0 0.0 16.290000149 0.0 0.0 0.0 29.1751946751" Properties=species:S:1:pos:R:3:initial_magmoms:R:1 pbc="T T T"
Si      -1.33999912       1.35998695       1.34155568       0.00000000
Si       1.39132891       1.22300434      -1.43296886       0.00000000
Si       1.40193370      -1.42244281       1.22331591       0.00000000
Si      -1.50421861      -1.28298412      -1.28604258       0.00000000
H        0.50981184       2.07865289      -2.31998231       0.00000000
Si       2.70962975       0.02391372       2.59463175       0.00000000
Si      -2.55850742       2.77281867      -0.10911523       0.00000000
Si      -2.66040137      -0.04380381       2.68495524       0.00000000
Si       2.42962094      -0.25607880      -2.90509083       0.00000000
Si       0.07480368      -2.80347645       2.59984536       0.00000000
