10
Lattice="16.290000149 0.0 0.0 0.0 16.290000149 0.0 0.0 0.0 29.1751946751" Properties=species:S:1:pos:R:3:initial_magmoms:R:1 pbc="T T T"
Si       1.35480673      -1.36658440       1.33730340       0.00000000
Si      -1.35622396      -1.36796905      -1.33677824       0.00000000
Si       1.37487601       1.33657822      -1.36181056       0.00000000
Si      -1.37753128       1.34601013       1.35737593       0.00000000
Si       2.64777662       0.06991668       2.65109159       0.00000000
Si       0.02796993      -2.72322376      -2.67052227       0.00000000
Si      -2.68417663      -0.00728163      -2.71130919       0.00000000
Si      -2.70708689       2.70510113      -0.00778978       0.00000000
Si       0.03191211       2.71979471      -2.70524075       0.00000000
Si      -2.70341675      -2.72178861       0.03924064       0.00000000
