10
Lattice="16.290000149 0.0 0.0 0.0 16.290000149 0.0 0.0 0.0 29.1751946751" Properties=species:S:1:pos:R:3:initial_magmoms:R:1 pbc="T T T"
Si       1.37937694      -1.45141132       1.15878038       0.00000000
Si      -1.23367019      -1.35977600      -1.44285925       0.00000000
Si       1.40868265       1.29703750      -1.38660948       0.00000000
Si      -1.21881911       1.29146632       1.60163066       0.00000000
H        1.60082320       1.50369245       2.08932322       0.00000000
Si       2.22570761       0.21293311       2.55090397       0.00000000
Si      -2.50720533       2.63684115       0.09878721       0.00000000
Si      -2.54535651      -2.69464784      -0.07457180       0.00000000
Si       0.06090179       2.63273607      -2.76289094       0.00000000
Si      -2.70275049      -0.06655442      -2.71434341       0.00000000
