10
Lattice="16.290000149 0.0 0.0 0.0 16.290000149 0.0 0.0 0.0 29.1751946751" Properties=species:S:1:pos:R:3:initial_magmoms:R:1 pbc="T T T"
Si       1.42693397      -1.21585303       1.38477144       0.00000000
Si      -1.43510503       1.24929640       1.36385283       0.00000000
Si      -1.35760601      -1.41133303      -1.31189180       0.00000000
Si       1.36851803       1.42721578      -1.29701245       0.00000000
H       -1.19585217      -1.44148582       3.06917213       0.00000000
Si      -0.06047988      -2.41140872       2.77590307       0.00000000
Si       2.57428755      -2.64170045      -0.07652654       0.00000000
Si      -0.01814380       2.68451057       2.53879627       0.00000000
Si       2.56684302       0.02391372      -2.77114752       0.00000000
Si      -2.72735816       2.66312180       0.00869421       0.00000000
