10
Lattice="16.290000149 0.0 0.0 0.0 16.290000149 0.0 0.0 0.0 29.1751946751" Properties=species:S:1:pos:R:3:initial_magmoms:R:1 pbc="T T T"
Si       1.37687968       1.34029234       1.33246032       0.00000000
Si       1.37855755      -1.36611199      -1.31151253       0.00000000
Si      -1.35374788      -1.35156502       1.36154799       0.00000000
Si      -1.35065278       1.37643985      -1.34229236       0.00000000
Si      -0.05734080       2.66196521       2.61506022       0.00000000
Si       0.00043983      -2.70137072      -2.65613890       0.00000000
Si       2.73455346      -0.01055592      -2.66912186       0.00000000
Si      -2.71547786       0.02096523      -2.68936945       0.00000000
Si       0.00864999      -2.67809231       2.74200150       0.00000000
Si       2.72613152       2.69788466      -0.02062686       0.00000000
