10
Lattice="16.290000149 0.0 0.0 0.0 16.290000149 0.0 0.0 0.0 29.1751946751" Properties=species:S:1:pos:R:3:initial_magmoms:R:1 pbc="T T T"
Si       1.40208031       1.42827463      -1.17978652       0.00000000
Si       1.68679694      -1.60321294       0.03393075       0.00000000
Si      -0.95586463       1.26672670       1.75456703       0.00000000
Si      -1.57887568      -0.82435546      -1.56866269       0.00000000
Si      -2.06242805       1.20609532      -2.62308340       0.00000000
Si      -0.16772184       2.70914105      -2.30306069       0.00000000
Si       0.65265886      -3.37305630      -1.05252432       0.00000000
Si      -2.40634253       2.68100822       0.53463544       0.00000000
Si      -0.26279028      -2.31945167      -2.88618531       0.00000000
Si       2.35216199      -2.02357640       2.16183816       0.00000000
