10
Lattice="16.290000149 0.0 0.0 0.0 16.290000149 0.0 0.0 0.0 29.1751946751" Properties=species:S:1:pos:R:3:initial_magmoms:R:1 pbc="T T T"
Si      -1.32892192      -1.34445281       1.32268663       0.00000000
Si       1.49390704      -1.24715590      -1.26363895       0.00000000
Si      -1.24299217       1.36806679      -1.42049938       0.00000000
Si       1.43376436       1.42871446       1.22013582       0.00000000
Si       0.66262834       2.16500618      -2.53388025       0.00000000
H       -0.54631773      -0.47042262      -3.34974998       0.00000000
Si       2.35392131       0.48830904      -2.61830159       0.00000000
Si      -2.65572614       0.08027712       2.60336097       0.00000000
Si       0.11393226      -2.68828985       2.57663649       0.00000000
Si      -2.68283270      -2.62345078      -0.09694334       0.00000000
