10
Lattice="16.290000149 0.0 0.0 0.0 16.290000149 0.0 0.0 0.0 29.1751946751" Properties=species:S:1:pos:R:3:initial_magmoms:R:1 pbc="T T T"
H       -0.64728316      -0.82675009       1.07554355       0.00000000
Si       1.23746986      -1.36503685      -1.41972332       0.00000000
Si      -1.57934809       1.08506062      -1.32166549       0.00000000
Si       1.27542556       1.46261395       1.29998832       0.00000000
H       -2.08619516      -1.73744255       0.52681649       0.00000000
Si      -3.17943336       1.01248867       0.47027496       0.00000000
H       -1.27518121      -2.47003643       2.17623612       0.00000000
Si       2.50699844      -0.02974554       2.66025260       0.00000000
Si      -0.28145862       2.67423158      -2.59808026       0.00000000
Si       2.56143962      -2.73830016      -0.08679620       0.00000000
