10
Lattice="16.290000149 0.0 0.0 0.0 16.290000149 0.0 0.0 0.0 29.1751946751" Properties=species:S:1:pos:R:3:initial_magmoms:R:1 pbc="T T T"
Si      -1.29472921      -1.44066660       1.27545199       0.00000000
Si       1.29551113      -1.41738819      -1.34261328       0.00000000
Si      -1.43819524       1.62429693      -0.92724604       0.00000000
Si       1.19726614       1.14945157       1.69362005       0.00000000
Si      -0.79837291       2.02507980       2.66031095       0.00000000
Si      -2.32424093       0.18094264       2.59399573       0.00000000
Si      -0.09498699       2.64046714      -2.56709620       0.00000000
Si       2.62204852       2.56872598       0.33358918       0.00000000
Si       0.23122026      -2.43650689       2.78217574       0.00000000
Si       1.75879874      -0.59089874       3.21557326       0.00000000
