10
Lattice="16.290000149 0.0 0.0 0.0 16.290000149 0.0 0.0 0.0 29.1751946751" Properties=species:S:1:pos:R:3:initial_magmoms:R:1 pbc="T T T"
Si      -0.34495704       0.88167997       2.13574095       0.00000000
Si      -1.85530070      -0.93256993      -1.10527308       0.00000000
Si       1.05643909       1.76257802      -1.18098271       0.00000000
Si       1.60114411      -1.77632678      -0.09044310       0.00000000
Si       2.13864896       0.34217145      -2.67933318       0.00000000
Si      -0.67166929      -2.38324331      -2.51802353       0.00000000
Si       1.27619119       2.56974752       2.20532379       0.00000000
Si       2.22698963      -2.17930880       2.05760978       0.00000000
Si       3.43347591      -0.95180842      -1.25310379       0.00000000
Si      -3.15760476      -2.16868772       0.39579069       0.00000000
