10
Lattice="16.290000149 0.0 0.0 0.0 16.290000149 0.0 0.0 0.0 29.1751946751" Properties=species:S:1:pos:R:3:initial_magmoms:R:1 pbc="T T T"
Si       1.24703535      -1.42011334      -1.34545874       0.00000000
Si      -1.32165658      -1.31732344       1.37874005       0.00000000
Si      -1.13329531       1.51747867      -1.36194273       0.00000000
Si       1.50040187       1.38763108       1.17344296       0.00000000
Si       1.93477961       0.34033068      -2.85650042       0.00000000
H       -2.31904442       0.97145416      -2.39238143       0.00000000
Si       0.51796499       2.28292949      -2.83826593       0.00000000
Si       0.09964593       2.73872370       2.54281865       0.00000000
Si       0.12387486      -2.70578531       2.60399612       0.00000000
Si      -2.58304016       0.08338851       2.74009840       0.00000000
