10
Lattice="16.290000149 0.0 0.0 0.0 16.290000149 0.0 0.0 0.0 29.1751946751" Properties=species:S:1:pos:R:3:initial_magmoms:R:1 pbc="T T T"
Si      -1.41892417       1.37262799      -1.25389152       0.00000000
Si      -1.30230406      -1.23611779       1.50106377       0.00000000
Si       1.18363141      -1.45067338      -1.41275045       0.00000000
Si       1.85530070       0.93256993       1.10527308       0.00000000
Si       3.45644481      -0.84375685       1.01482997       0.00000000
Si      -0.04264722       2.69311169      -2.61727754       0.00000000
Si       2.57857670      -2.73367379      -0.05298215       0.00000000
Si       2.56785788      -0.11503998      -2.75326312       0.00000000
Si       0.14291217      -2.58981680       2.78506408       0.00000000
Si      -2.77482234      -0.00848709      -2.60551994       0.00000000
