10
Lattice="16.290000149 0.0 0.0 0.0 16.290000149 0.0 0.0 0.0 29.1751946751" Properties=species:S:1:pos:R:3:initial_magmoms:R:1 pbc="T T T"
Si       1.35981265      -1.33714837       1.38145714       0.00000000
Si      -1.50040187      -1.38763108      -1.17344296       0.00000000
Si      -1.40075594       1.35109261       1.36937569       0.00000000
Si       1.48402390       1.19928610      -1.43985713       0.00000000
Si      -2.63369718       0.12984759      -2.53538569       0.00000000
Si       2.65757180       2.66841605       0.01175469       0.00000000
Si      -0.25336652      -2.80774443      -2.51890170       0.00000000
Si       0.12773641       2.60289767      -2.75802160       0.00000000
Si      -0.01373736      -2.69710274       2.74538290       0.00000000
Si       2.67843929       0.00480555       2.77627943       0.00000000
