10
Lattice="16.290000149 0.0 0.0 0.0 16.290000149 0.0 0.0 0.0 29.1751946751" Properties=species:S:1:pos:R:3:initial_magmoms:R:1 pbc="T T T"
Si       1.33709787       1.35029440      -1.36983374       0.00000000
Si      -1.37979800       1.39478647       1.29806276       0.00000000
Si       1.34729541      -1.35272161       1.38605515       0.00000000
Si      -1.37904009      -1.35884665      -1.35801779       0.00000000
Si      -0.11850324      -2.73303848       2.60184386       0.00000000
Si      -2.69148432       0.05991462       2.66635022       0.00000000
Si       2.68584473      -2.68402187      -0.02170634       0.00000000
Si       2.68116950       2.69646255       0.01843872       0.00000000
Si      -0.06924390       2.68839737      -2.70252746       0.00000000
Si       2.68871177      -0.01132155      -2.73044812       0.00000000
