10
Lattice="16.290000149 0.0 0.0 0.0 16.290000149 0.0 0.0 0.0 29.1751946751" Properties=species:S:1:pos:R:3:initial_magmoms:R:1 pbc="T T T"
Si      -1.31862664      -1.34195392      -1.39482229       0.00000000
Si       1.35355240       1.31473333      -1.40078862       0.00000000
Si      -1.37911141       1.35917245       1.33558206       0.00000000
Si       1.35156502      -1.36723600       1.35676325       0.00000000
Si       2.69855255       2.68351688      -0.03743177       0.00000000
Si      -2.69217665      -2.70190829      -0.03089653       0.00000000
Si      -0.01878237       2.71358822       2.68884429       0.00000000
Si       0.09464490      -2.72341109      -2.68585675       0.00000000
Si       2.69967656      -0.01055592       2.71816536       0.00000000
Si      -0.02086749       2.66361050      -2.76452475       0.00000000
