10
Lattice="16.290000149 0.0 0.0 0.0 16.290000149 0.0 0.0 0.0 29.1751946751" Properties=species:S:1:pos:R:3:initial_magmoms:R:1 pbc="T T T"
Si       0.59784301       0.08905743       1.40143048       0.00000000
H        2.11786292      -0.75535102      -0.30531841       0.00000000
Si       1.39773088      -0.83476477      -1.62949297       0.00000000
Si      -0.47211678      -2.29682486      -1.78765170       0.00000000
Si      -1.12008412       0.53309025       2.92475492       0.00000000
H       -3.10625868      -0.62390701       0.72771688       0.00000000
Si       1.08139537      -1.94139335       2.45585119       0.00000000
Si       1.04785426       1.11456181      -2.99988104       0.00000000
H       -1.72765226      -2.67007763       1.19659143       0.00000000
Si       2.49254921       1.59210316       1.72145319       0.00000000
