10
Lattice="16.290000149 0.0 0.0 0.0 16.290000149 0.0 0.0 0.0 29.1751946751" Properties=species:S:1:pos:R:3:initial_magmoms:R:1 pbc="T T T"
Si      -0.84334960      -0.93574648      -0.80882392       0.00000000
H        1.43891200       0.91069246       0.54872706       0.00000000
H        0.81101395      -0.73259389       1.64941963       0.00000000
Si       2.08619516       1.73744255      -0.52681649       0.00000000
Si      -1.09323820       2.74993122      -0.05654153       0.00000000
Si      -0.80459569       1.86453713       2.18449270       0.00000000
Si      -2.13817655       0.35823339      -2.23505331       0.00000000
Si       0.58627711      -2.37962693      -1.93014335       0.00000000
Si      -2.67568139      -1.76026484       0.35383676       0.00000000
Si       1.99459649      -1.25340148       2.44776966       0.00000000
