10
Lattice="16.290000149 0.0 0.0 0.0 16.290000149 0.0 0.0 0.0 29.1751946751" Properties=species:S:1:pos:R:3:initial_magmoms:R:1 pbc="T T T"
Si       2.23205582      -0.50477823       0.32734568       0.00000000
Si      -1.04576914       0.67090040       2.07152635       0.00000000
Si      -0.05799240       2.06881373      -1.28779309       0.00000000
Si      -0.65392948      -1.77204251      -1.58558431       0.00000000
Si      -2.36669267       1.98149444      -0.93346035       0.00000000
H       -0.66256318      -2.91059949       1.53913740       0.00000000
Si       2.78998833      -1.54033354      -1.68250430       0.00000000
Si      -3.11235114       1.39556757       1.22299499       0.00000000
Si       3.47429865       1.28244492      -0.51465043       0.00000000
Si       1.16884009      -3.22840110      -1.75208714       0.00000000
