10
Lattice="16.290000149 0.0 0.0 0.0 16.290000149 0.0 0.0 0.0 29.1751946751" Properties=species:S:1:pos:R:3:initial_magmoms:R:1 pbc="T T T"
Si      -1.33440497      -1.37720548      -1.34483060       0.00000000
Si       1.34262833      -1.35819505       1.36338602       0.00000000
Si       1.33068776       1.35736426      -1.38389618       0.00000000
Si      -1.38852052       1.36073629       1.32297838       0.00000000
Si      -2.66420672       0.03386691      -2.65333808       0.00000000
Si      -0.03652218       2.71366967       2.68382616       0.00000000
Si       2.69101680       2.71178003      -0.03063395       0.00000000
Si       2.69087019       0.00369783       2.71332228       0.00000000
Si       2.70197997      -2.71357193       0.00991957       0.00000000
Si       2.70979917      -0.00180819      -2.71947825       0.00000000
