10
Lattice="16.290000149 0.0 0.0 0.0 16.290000149 0.0 0.0 0.0 29.1751946751" Properties=species:S:1:pos:R:3:initial_magmoms:R:1 pbc="T T T"
H       -0.62488441       1.29075934      -0.46158075       0.00000000
Si      -0.84633067      -1.66434443      -1.39212359       0.00000000
Si       2.30870027       0.08731929      -0.35433274       0.00000000
Si      -0.74565847      -0.58592687       2.15645534       0.00000000
H        1.39991374       1.65774046      -1.84477673       0.00000000
Si       2.36669267      -1.98149444       0.93346035       0.00000000
Si      -2.22570761      -0.21293311      -2.55090397       0.00000000
Si      -2.13953514       2.78323286       0.19383999       0.00000000
Si       1.32092353      -1.31059404       3.00498670       0.00000000
Si       0.49523229       2.55294113      -2.65858961       0.00000000
