10
Lattice="16.290000149 0.0 0.0 0.0 16.290000149 0.0 0.0 0.0 29.1751946751" Properties=species:S:1:pos:R:3:initial_magmoms:R:1 pbc="T T T"
Si       1.30230406       1.23611779      -1.50106377       0.00000000
Si       1.44521623      -1.35369901       1.28400032       0.00000000
Si      -1.50501682       1.33648048       1.24691865       0.00000000
Si      -1.43342227      -1.40787955      -1.32049849       0.00000000
Si       2.50631426      -2.81632926      -0.19544463       0.00000000
Si      -2.82008410      -0.15058476       2.51531023       0.00000000
Si      -0.11662011       2.60874578      -2.75495528       0.00000000
Si       0.13219335      -2.71559189       2.66737135       0.00000000
Si       2.48593547      -0.21455559      -2.91381422       0.00000000
Si       3.15760476       2.16868772      -0.39579069       0.00000000
