10
Lattice="16.290000149 0.0 0.0 0.0 16.290000149 0.0 0.0 0.0 29.1751946751" Properties=species:S:1:pos:R:3:initial_magmoms:R:1 pbc="T T T"
Si      -0.64498627       0.84269800      -1.07773169       0.00000000
Si       2.15489009       0.25552494       1.31971076       0.00000000
Si       2.25735419      -1.47722608      -0.48617544       0.00000000
Si       0.39767148       1.22350933       2.58255906       0.00000000
Si      -2.07335864       2.06967710       0.21064491       0.00000000
Si       0.42174810      -2.66349322      -1.49365327       0.00000000
Si      -2.08479422      -0.48839049      -2.28651836       0.00000000
Si      -0.68688415      -2.31037977       2.14274300       0.00000000
Si      -1.37269315      -0.25883181       2.90862103       0.00000000
Si       0.85555081       2.20260350      -2.24123846       0.00000000
