10
Lattice="16.290000149 0.0 0.0 0.0 16.290000149 0.0 0.0 0.0 29.1751946751" Properties=species:S:1:pos:R:3:initial_magmoms:R:1 pbc="T T T"
Si       1.41525892       1.32587569      -1.23877877       0.00000000
Si      -1.42609177      -1.38978136      -1.17920302       0.00000000
Si       1.29482695      -1.29397987       1.42622939       0.00000000
Si      -1.08220987       1.42040656       1.49835047       0.00000000
H        2.13817655      -0.35823339       2.23505331       0.00000000
Si      -0.53750484      -2.11849823       2.58889007       0.00000000
Si       1.04493835       2.39169782       2.17851179       0.00000000
Si      -2.13864896      -0.34217145       2.67933318       0.00000000
Si       2.64502361       2.46426977       0.38657133       0.00000000
Si       0.00812871      -2.71145423      -2.46180293       0.00000000
