10
Lattice="16.290000149 0.0 0.0 0.0 16.290000149 0.0 0.0 0.0 29.1751946751" Properties=species:S:1:pos:R:3:initial_magmoms:R:1 pbc="T T T"
Si      -1.36917451       1.34775316      -1.34121287       0.00000000
Si      -1.37520181      -1.34227972       1.34167968       0.00000000
Si       1.35496963      -1.35378046      -1.36490313       0.00000000
Si       1.35762490       1.36342414       1.35717171       0.00000000
Si       0.01068624       2.69092883      -2.67586133       0.00000000
Si      -0.01295055      -2.73641051       2.64621933       0.00000000
Si       2.71841006      -2.69250896      -0.00145876       0.00000000
Si      -2.72733698       0.02774187       2.69237449       0.00000000
Si       2.71125875       0.01627371      -2.70961703       0.00000000
Si      -2.72950355      -2.69540858      -0.01937233       0.00000000
