10
Lattice="16.290000149 0.0 0.0 0.0 16.290000149 0.0 0.0 0.0 29.1751946751" Properties=species:S:1:pos:R:3:initial_magmoms:R:1 pbc="T T T"
Si      -1.17156052       0.15482016      -2.01469307       0.00000000
Si       0.22924591       1.85222189       1.43702421       0.00000000
Si       2.31140441      -0.17451477      -0.59736211       0.00000000
Si      -1.15202881      -2.06456204       0.58610049       0.00000000
H       -2.70358616       0.57834388       0.01648399       0.00000000
H       -2.20276640      -0.95508271      -1.79150283       0.00000000
Si      -3.16412076      -0.70299496       0.67841080       0.00000000
Si       1.66744442       0.66456685       2.88227583       0.00000000
Si       1.89081290      -1.98593021      -2.08838961       0.00000000
Si       0.32139356      -0.90932410      -3.44634905       0.00000000
