10
Lattice="16.290000149 0.0 0.0 0.0 16.290000149 0.0 0.0 0.0 29.1751946751" Properties=species:S:1:pos:R:3:initial_magmoms:R:1 pbc="T T T"
Si       1.34586352       1.29178072      -1.37047559       0.00000000
Si      -1.52743186       1.26333838       1.21409655       0.00000000
Si       1.03166200      -0.82585414       1.95409619       0.00000000
Si      -1.41338557      -1.39253437      -1.29955070       0.00000000
Si      -0.79842178      -2.11877516       2.59110739       0.00000000
Si      -2.45055359      -0.46480257       2.49439162       0.00000000
Si       2.60077997       2.61087000       0.09954576       0.00000000
Si      -0.07951149       2.65664979      -2.66716712       0.00000000
Si       2.71041167      -0.07770330      -2.71478104       0.00000000
Si      -0.07483626      -2.72383463      -2.70731219       0.00000000
