10
Lattice="16.290000149 0.0 0.0 0.0 16.290000149 0.0 0.0 0.0 29.1751946751" Properties=species:S:1:pos:R:3:initial_magmoms:R:1 pbc="T T T"
Si      -0.72013204      -0.07941375      -1.32417456       0.00000000
H       -2.11786292       0.75535102       0.30531841       0.00000000
H        1.14220594       1.63007515      -1.11875201       0.00000000
H        1.80037082       1.21788928      -1.09234846       0.00000000
Si      -1.52001991       0.84440845       1.70674889       0.00000000
Si       0.27961785      -2.68113854       1.44364698       0.00000000
Si       0.88863580      -0.87195484      -2.84434808       0.00000000
Si       2.28362996      -2.09251568       0.27754363       0.00000000
Si       0.37468629       2.34745418       2.02677160       0.00000000
Si      -1.03646755      -1.18604233       2.76116960       0.00000000
