10
Lattice="16.290000149 0.0 0.0 0.0 16.290000149 0.0 0.0 0.0 29.1751946751" Properties=species:S:1:pos:R:3:initial_magmoms:R:1 pbc="T T T"
H        0.84334960       0.93574648       0.80882392       0.00000000
Si      -1.29482695       1.29397987      -1.42622939       0.00000000
Si       1.42962670      -1.44388045      -1.12131943       0.00000000
Si      -1.83233180      -0.82451836       1.16266068       0.00000000
H        1.65436355       0.20315259       2.45824355       0.00000000
H        2.28226160       1.84643894       1.35755098       0.00000000
Si      -2.37703682       2.71438643       0.07212108       0.00000000
Si       2.77933467      -0.05274702      -2.46641261       0.00000000
Si       0.07014474      -2.75204892      -2.51105066       0.00000000
Si      -1.20648628      -1.22750038       3.31071357       0.00000000
