10
Lattice="16.290000149 0.0 0.0 0.0 16.290000149 0.0 0.0 0.0 29.1751946751" Properties=species:S:1:pos:R:3:initial_magmoms:R:1 pbc="T T T"
H       -1.05410962       1.10066970       0.01543368       0.00000000
Si      -0.83189773      -1.93835852       1.01051204       0.00000000
Si       0.28209393      -0.73364785      -2.20882481       0.00000000
Si       1.86490202       0.91942227       1.10652761       0.00000000
Si       2.55011482      -1.22195689      -2.09988464       0.00000000
H        0.18850788       3.10650792      -1.81370515       0.00000000
Si       0.92289367       1.71208390       3.10432824       0.00000000
Si      -2.39476034      -2.71332270      -0.58551698       0.00000000
Si      -2.91403668       0.48741961       2.38475124       0.00000000
Si       0.93815740      -3.09276567       2.04062982       0.00000000
