10
Lattice="16.290000149 0.0 0.0 0.0 16.290000149 0.0 0.0 0.0 29.1751946751" Properties=species:S:1:pos:R:3:initial_magmoms:R:1 pbc="T T T"
Si       1.29296989       1.43650108       1.31378819       0.00000000
Si      -1.35480673       1.36658440      -1.33730340       0.00000000
Si      -1.30781008      -1.34713903       1.42290342       0.00000000
Si       1.42558678      -1.36232294      -1.29791689       0.00000000
Si       2.53368146       0.04683375       2.68583925       0.00000000
Si      -2.65188170      -2.69330717       0.03463096       0.00000000
Si       0.06369390      -2.70495452      -2.67548205       0.00000000
Si      -2.71103069      -0.00138465      -2.67408164       0.00000000
Si       0.02006928       2.70316262      -2.69911396       0.00000000
Si       2.76017763       0.00167787      -2.66751722       0.00000000
