10
Lattice="16.290000149 0.0 0.0 0.0 16.290000149 0.0 0.0 0.0 29.1751946751" Properties=species:S:1:pos:R:3:initial_magmoms:R:1 pbc="T T T"
Si      -1.28696703      -1.40796100      -1.32227817       0.00000000
Si       1.41595125      -1.22324869       1.37832372       0.00000000
Si      -1.34140821       1.30059361       1.42477063       0.00000000
Si       1.46579865       1.38031687      -1.21578871       0.00000000
Si       2.08076244       0.65407609       2.67486937       0.00000000
Si       0.42863063       2.30804867       2.57815360       0.00000000
Si      -2.61093679      -0.03469770      -2.65520529       0.00000000
Si       0.11850324       2.73303848      -2.60184386       0.00000000
Si      -2.60833039      -2.73170271       0.11661325       0.00000000
Si       0.10088397      -2.71031393       2.64671531       0.00000000
