10
Lattice="16.290000149 0.0 0.0 0.0 16.290000149 0.0 0.0 0.0 29.1751946751" Properties=species:S:1:pos:R:3:initial_magmoms:R:1 pbc="T T T"
Si       1.33459084       1.36400081      -1.36960034       0.00000000
Si      -1.36189288      -1.34263159      -1.37756517       0.00000000
Si      -1.42558678       1.36232294       1.29791689       0.00000000
Si       1.40090743      -1.34066050       1.36076025       0.00000000
Si       2.70417260      -2.68696385      -0.07177098       0.00000000
Si       0.05652630      -2.71916918       2.67320639       0.00000000
Si       2.69465924       2.70999465      -0.00230484       0.00000000
Si      -0.13261689       2.79882402       2.61170508       0.00000000
Si      -2.72585459      -2.69260019      -0.02806654       0.00000000
Si       2.63080244       0.09243272       2.78827336       0.00000000
