10
Lattice="16.290000149 0.0 0.0 0.0 16.290000149 0.0 0.0 0.0 29.1751946751" Properties=species:S:1:pos:R:3:initial_magmoms:R:1 pbc="T T T"
Si      -1.34778086       1.33569856      -1.37628146       0.00000000
Si       1.31225725       1.46883673       1.27892383       0.00000000
Si      -1.40868265      -1.29703750       1.38660948       0.00000000
Si       1.41861466      -1.35513742      -1.33587381       0.00000000
H        2.21693870       0.57363607       2.09273671       0.00000000
H        0.19214055       0.20665494       3.47593269       0.00000000
Si      -0.02930571      -2.74844883       2.54538986       0.00000000
Si      -2.64235284      -2.65681350      -0.05624978       0.00000000
Si      -2.61963630       2.69920415       0.04355857       0.00000000
Si       0.07454304      -2.70130556      -2.72414628       0.00000000
