10
Lattice="16.290000149 0.0 0.0 0.0 16.290000149 0.0 0.0 0.0 29.1751946751" Properties=species:S:1:pos:R:3:initial_magmoms:R:1 pbc="T T T"
Si       0.08821035      -0.68916475      -2.23166316       0.00000000
Si      -0.98816770      -1.78758480       1.15311164       0.00000000
Si       1.83202229       0.87876406       1.19815522       0.00000000
Si      -1.63426168       1.73530856      -0.08397701       0.00000000
H        2.52869672      -0.95972536      -0.73109537       0.00000000
Si      -2.30625677      -0.46421613       2.55202430       0.00000000
Si       0.54696933       2.33096870       2.52109567       0.00000000
Si      -2.11742309      -0.30998241      -3.02998401       0.00000000
Si      -2.06949791       1.98469217      -2.36866987       0.00000000
Si       2.03813966       0.32622354      -3.12958812       0.00000000
