10
Lattice="16.290000149 0.0 0.0 0.0 16.290000149 0.0 0.0 0.0 29.1751946751" Properties=species:S:1:pos:R:3:initial_magmoms:R:1 pbc="T T T"
Si      -1.35039993      -1.40888953       1.30465636       0.00000000
Si       1.33833464      -1.36402687      -1.37184683       0.00000000
Si      -1.43939220       1.34887717      -1.28610093       0.00000000
Si       1.37904009       1.35884665       1.35801779       0.00000000
Si      -2.58786979      -0.04385268       2.72437968       0.00000000
Si      -0.06036224       2.67538817      -2.67519030       0.00000000
Si      -0.00075791       2.75363312       2.65608055       0.00000000
Si       2.70898666      -2.70629030      -0.01531698       0.00000000
Si      -0.02643017      -2.78215284       2.63758347       0.00000000
Si       2.69852848      -0.01386279      -2.72513823       0.00000000
