10
Lattice="16.290000149 0.0 0.0 0.0 16.290000149 0.0 0.0 0.0 29.1751946751" Properties=species:S:1:pos:R:3:initial_magmoms:R:1 pbc="T T T"
Si       1.06109803      -1.46263024      -1.47944495       0.00000000
Si      -1.31302288      -1.36189288       1.38337103       0.00000000
Si      -1.44521623       1.35369901      -1.28400032       0.00000000
Si       1.81617212       0.75650761       1.38234990       0.00000000
Si       2.16604874      -1.19281897       2.75273797       0.00000000
Si       0.29620107      -2.65487906       2.59457924       0.00000000
Si      -2.69588099       0.12650814       2.58926935       0.00000000
Si       2.43566453      -0.14385699      -2.83804624       0.00000000
Si       2.28641555      -2.99503056      -0.23871144       0.00000000
Si      -0.14291217       2.58981680      -2.78506408       0.00000000
