10
Lattice="16.290000149 0.0 0.0 0.0 16.290000149 0.0 0.0 0.0 29.1751946751" Properties=species:S:1:pos:R:3:initial_magmoms:R:1 pbc="T T T"
Si       0.98262910      -1.85583827       0.90063826       0.00000000
Si      -1.48840102      -1.00967050      -1.47127589       0.00000000
Si      -1.60876783       0.79254109       1.52017352       0.00000000
Si       1.65063314       1.52811604      -0.74212943       0.00000000
H        0.91173502       2.08984412       1.75199962       0.00000000
H        0.25357014       2.50202999       1.72559606       0.00000000
H       -0.88863580       0.87195484       2.84434808       0.00000000
Si      -1.95864446       2.74186767       0.14978545       0.00000000
Si       0.16456158       3.32843799      -0.85474568       0.00000000
Si      -0.06002865      -2.23664960      -2.75965249       0.00000000
