10
Lattice="16.290000149 0.0 0.0 0.0 16.290000149 0.0 0.0 0.0 29.1751946751" Properties=species:S:1:pos:R:3:initial_magmoms:R:1 pbc="T T T"
Si       1.81943012      -0.88536151       1.14880247       0.00000000
Si      -0.87144985       1.78329890       1.28411702       0.00000000
Si       1.11876463       1.44314740      -1.54917366       0.00000000
Si      -1.02705193      -2.15054066      -0.39021823       0.00000000
H       -1.93583846      -0.58011949      -1.88066222       0.00000000
Si       2.60716565       2.45281790      -0.07789777       0.00000000
Si      -0.05387103      -2.55467276      -2.54255987       0.00000000
Si      -1.92959939       0.61618555       2.99821806       0.00000000
Si       0.99839782       3.24535899       1.44227575       0.00000000
H        3.19212327      -0.62652970      -1.75981857       0.00000000
