10
Lattice="16.290000149 0.0 0.0 0.0 16.290000149 0.0 0.0 0.0 29.1751946751" Properties=species:S:1:pos:R:3:initial_magmoms:R:1 pbc="T T T"
Si       1.37323072       1.38381922       1.30955779       0.00000000
Si       1.37104786      -1.33967332      -1.36557416       0.00000000
Si      -1.32380686       1.36443412      -1.39270709       0.00000000
Si      -1.36684504      -1.35934024       1.37683579       0.00000000
Si      -2.67356369      -2.67356369      -0.06923274       0.00000000
Si       2.67693572       0.00314397       2.68478894       0.00000000
Si      -2.68423364       2.71593398      -0.03967826       0.00000000
Si       2.70321149      -2.70599708       0.00612679       0.00000000
Si      -2.69089625       0.03464883       2.74135964       0.00000000
Si       0.04929354       2.75465532       2.68268833       0.00000000
