10
Lattice="16.290000149 0.0 0.0 0.0 16.290000149 0.0 0.0 0.0 29.1751946751" Properties=species:S:1:pos:R:3:initial_magmoms:R:1 pbc="T T T"
Si      -1.32357880      -1.34153266      -1.33326555       0.00000000
Si       1.31791412      -1.43493399       1.27390570       0.00000000
Si      -1.44365239       1.33330719       1.28006167       0.00000000
Si       1.30046899       1.29116496      -1.46995426       0.00000000
Si       2.63131232      -0.04979364       2.63694162       0.00000000
Si      -0.07460820       2.68224952       2.61742342       0.00000000
Si      -2.75986812      -0.00238486      -2.56353975       0.00000000
Si       2.66325864       2.68747861      -0.15512451       0.00000000
Si      -0.14506245       2.67962683      -2.69521032       0.00000000
Si      -0.08177580      -2.76831937       2.60843746       0.00000000
