10
Lattice="16.290000149 0.0 0.0 0.0 16.290000149 0.0 0.0 0.0 29.1751946751" Properties=species:S:1:pos:R:3:initial_magmoms:R:1 pbc="T T T"
Si      -1.37323072       1.35940051       1.32079024       0.00000000
Si      -1.37376829      -1.36418977      -1.33152671       0.00000000
Si       1.35415513       1.37469682      -1.34258411       0.00000000
Si       1.35975889      -1.32546844       1.39083988       0.00000000
Si      -0.01374876       2.66756897       2.71052146       0.00000000
Si       2.68369607      -2.69630453       0.01770934       0.00000000
Si      -0.01334151      -2.71568963      -2.68455554       0.00000000
Si      -2.71578737       0.02678076       2.69281212       0.00000000
Si       2.70146846       0.02710656      -2.70917940       0.00000000
Si      -2.73007371       2.69397506      -0.05619142       0.00000000
