10
Lattice="16.290000149 0.0 0.0 0.0 16.290000149 0.0 0.0 0.0 29.1751946751" Properties=species:S:1:pos:R:3:initial_magmoms:R:1 pbc="T T T"
Si      -1.34713414       1.34232859      -1.36525323       0.00000000
Si      -1.35628912      -1.37005417       1.34471390       0.00000000
Si       1.35749458       1.34985457       1.36545746       0.00000000
Si       1.34423452      -1.30038184      -1.42550001       0.00000000
Si       0.11569158       2.77664128      -2.57624555       0.00000000
Si      -2.76934890      -0.11569158      -2.59204100       0.00000000
Si      -2.70057251       2.67465512       0.03375570       0.00000000
Si       2.69244380      -2.68667714      -0.06532326       0.00000000
Si       0.00715131      -2.70878267       2.70815827       0.00000000
Si      -2.71125875      -0.01627371       2.70961703       0.00000000
