10
Lattice="16.290000149 0.0 0.0 0.0 16.290000149 0.0 0.0 0.0 29.1751946751" Properties=species:S:1:pos:R:3:initial_magmoms:R:1 pbc="T T T"
Si      -1.36826227      -1.34382727       1.34305091       0.00000000
Si      -1.38245086       1.34558659      -1.33631144       0.00000000
Si       1.34991973      -1.36515088      -1.35562542       0.00000000
Si       1.36640521       1.36176256       1.35297048       0.00000000
Si       0.00490329       2.70516629      -2.64015089       0.00000000
Si      -0.00131949      -2.70119153       2.67107660       0.00000000
Si       2.71362080      -0.00322542      -2.68475976       0.00000000
Si      -2.70839171      -2.70656723      -0.02214397       0.00000000
Si      -2.69951366       2.71586882       0.05368236       0.00000000
Si      -2.68636763       0.01896156       2.73391997       0.00000000
