10
Lattice="16.290000149 0.0 0.0 0.0 16.290000149 0.0 0.0 0.0 29.1751946751" Properties=species:S:1:pos:R:3:initial_magmoms:R:1 pbc="T T T"
Si       1.36694278      -1.35736426       1.32802569       0.00000000
Si       1.36826227       1.34382727      -1.34305091       0.00000000
Si      -1.34012944      -1.36273996      -1.36519488       0.00000000
Si      -1.31810536       1.36278883       1.39086906       0.00000000
Si      -0.01418859       2.68941386      -2.67936235       0.00000000
Si      -0.00894321      -2.68755680       2.68330100       0.00000000
Si       2.71528238       0.00423540       2.67656153       0.00000000
Si      -2.69890116      -2.71454933      -0.00247989       0.00000000
Si      -2.69091906      -0.00355122      -2.72516741       0.00000000
Si       2.71818200      -0.02132361      -2.69867633       0.00000000
