10
Lattice="16.290000149 0.0 0.0 0.0 16.290000149 0.0 0.0 0.0 29.1751946751" Properties=species:S:1:pos:R:3:initial_magmoms:R:1 pbc="T T T"
Si      -1.31791412       1.43493399      -1.27390570       0.00000000
Si       1.31339820       1.38514034       1.36303592       0.00000000
Si      -1.39968992      -1.33338538       1.33453175       0.00000000
Si       1.28009656      -1.34332228      -1.45989757       0.00000000
Si      -2.64149292       0.09340132      -2.60717125       0.00000000
Si       2.64534518      -2.69158043      -0.08702961       0.00000000
Si      -0.03122187      -2.69044013       2.67449010       0.00000000
Si       2.65884959       0.02404404       2.71828206       0.00000000
Si       2.69180426       0.04895145      -2.71619604       0.00000000
Si       2.63873144       2.76851811       0.00163381       0.00000000
