10
Lattice="16.290000149 0.0 0.0 0.0 16.290000149 0.0 0.0 0.0 29.1751946751" Properties=species:S:1:pos:R:3:initial_magmoms:R:1 pbc="T T T"
H        1.93903130      -0.14760369      -1.06682017       0.00000000
Si       0.99670366      -1.30546432       1.66219837       0.00000000
Si       0.74200951       1.87931216      -1.28863917       0.00000000
Si      -0.74714086      -2.04385745      -1.00733195       0.00000000
Si      -1.08628237       1.11524599       1.86517020       0.00000000
H       -1.23040000       1.26654751      -2.37722404       0.00000000
H       -3.03077082       0.04865823      -1.28487557       0.00000000
H       -1.88856488       1.67873339      -2.40362759       0.00000000
H        2.31249584      -0.77797783       2.57424413       0.00000000
Si      -1.03804768       3.42293628      -0.65332013       0.00000000
