10
Lattice="16.290000149 0.0 0.0 0.0 16.290000149 0.0 0.0 0.0 29.1751946751" Properties=species:S:1:pos:R:3:initial_magmoms:R:1 pbc="T T T"
Si      -1.22223871       1.32496345      -1.51451353       0.00000000
Si       1.34257294       1.45376848       1.28764722       0.00000000
Si      -1.61803684      -1.02682387       1.39521616       0.00000000
Si       1.78005719      -1.54362412      -0.63531904       0.00000000
H       -0.85051720      -1.74420290      -1.75030745       0.00000000
H       -0.19235232      -2.15638877      -1.72390390       0.00000000
H        1.34765542       0.61888969      -2.85094167       0.00000000
Si      -0.04823469      -2.30769029       2.51849033       0.00000000
Si       0.03429045       1.07872381      -3.45361367       0.00000000
Si       1.03804768      -3.42293628       0.65332013       0.00000000
