10
Lattice="16.290000149 0.0 0.0 0.0 16.290000149 0.0 0.0 0.0 29.1751946751" Properties=species:S:1:pos:R:3:initial_magmoms:R:1 pbc="T T T"
Si       1.25652916      -0.24623964      -1.93910014       0.00000000
Si      -0.33554142       2.12143043       0.93375211       0.00000000
Si       1.22223871      -1.32496345       1.51451353       0.00000000
Si      -2.06267240      -0.69423094      -0.90028816       0.00000000
H        2.56989413      -0.70607377      -1.33642814       0.00000000
H       -2.52219701       0.28914750       1.72320370       0.00000000
H        0.37172151      -3.06916635      -0.23579392       0.00000000
H       -1.25009461       2.04693626       2.14566052       0.00000000
H       -3.19427355      -0.63276877       0.10389287       0.00000000
Si       0.28271295      -2.24275835      -2.81613567       0.00000000
