10
Lattice="16.290000149 0.0 0.0 0.0 16.290000149 0.0 0.0 0.0 29.1751946751" Properties=species:S:1:pos:R:3:initial_magmoms:R:1 pbc="T T T"
Si      -1.23746986       1.36503685       1.41972332       0.00000000
Si       1.32396976      -1.37326330       1.33292712       0.00000000
Si       1.35039993       1.40888953      -1.30465636       0.00000000
Si      -1.38767995      -1.36089919      -1.32869672       0.00000000
H       -1.88475302       0.53828676       2.49526688       0.00000000
Si       2.61093679       0.03469770       2.65520529       0.00000000
Si      -2.81681796       2.45009747       0.09805783       0.00000000
Si      -0.08899227       2.75776671      -2.59075729       0.00000000
Si       2.68873457       0.04486266      -2.67650318       0.00000000
Si      -0.00426798      -2.70453098      -2.66489146       0.00000000
