10
Lattice="16.290000149 0.0 0.0 0.0 16.290000149 0.0 0.0 0.0 29.1751946751" Properties=species:S:1:pos:R:3:initial_magmoms:R:1 pbc="T T T"
Si      -1.39097053      -1.34403904      -1.32963032       0.00000000
Si      -1.35935164       1.35537688       1.35346646       0.00000000
Si       1.32874273      -1.37005417       1.37315971       0.00000000
Si       1.35938422       1.34452774      -1.37263456       0.00000000
Si      -0.03572397      -2.73807209      -2.62136207       0.00000000
Si       2.70749576       2.70120782      -0.01123245       0.00000000
Si      -2.70197997       2.71357193      -0.00991957       0.00000000
Si       2.68711697      -2.72828180       0.03428085       0.00000000
Si       2.70332552      -0.02265939       2.71463516       0.00000000
Si      -0.01110978       2.71726976       2.70340271       0.00000000
