10
Lattice="16.290000149 0.0 0.0 0.0 16.290000149 0.0 0.0 0.0 29.1751946751" Properties=species:S:1:pos:R:3:initial_magmoms:R:1 pbc="T T T"
Si       1.43980795       1.33108849       1.20878667       0.00000000
Si      -1.24071157       1.38966733      -1.37205106       0.00000000
Si       1.52270776      -1.31672397      -1.19548278       0.00000000
Si      -1.16120008      -1.43975257       1.50377706       0.00000000
H        2.08479422       0.48839049       2.28651836       0.00000000
Si       2.50654232      -2.17510272       0.79286509       0.00000000
Si       0.75766420      -2.49864819       2.28292981       0.00000000
Si       0.01143558       2.55806759       2.49716326       0.00000000
Si      -2.41611653      -2.75884185       0.03375570       0.00000000
Si      -2.53368146      -0.04683375      -2.68583925       0.00000000
