10
Lattice="16.290000149 0.0 0.0 0.0 16.290000149 0.0 0.0 0.0 29.1751946751" Properties=species:S:1:pos:R:3:initial_magmoms:R:1 pbc="T T T"
Si       2.06658200      -0.72466717       0.84853136       0.00000000
Si       0.74565847       0.58592687      -2.15645534       0.00000000
Si      -1.29409716      -1.98347368      -0.11480439       0.00000000
Si      -0.58924189       1.52084745       1.75450868       0.00000000
H        0.69271597       1.54194300       2.57611134       0.00000000
H        0.12077406       1.87668621      -2.61803609       0.00000000
Si      -0.03598461       3.51936982       0.02153129       0.00000000
Si       1.27088065      -2.21682793       2.55866457       0.00000000
Si       3.11235114      -1.39556757      -1.22299499       0.00000000
Si      -1.97930995       0.15790549       3.09160785       0.00000000
