10
Lattice="16.28999089631971 0.0 0.0 0.0 16.28999089631971 0.0 0.0 0.0 34.385447050020396" Properties=species:S:1:pos:R:3:initial_magmoms:R:1 pbc="T T T"
Si       1.33711578       1.35796351       1.38510160       0.00000000
Si      -0.74769471       1.91757551      -1.16240756       0.00000000
Si      -1.39005176      -1.34390145       1.37495789       0.00000000
Si       1.32146109      -1.36770114      -1.64952239       0.00000000
Si       2.67538815      -2.70649479      -0.01689702       0.00000000
Si       2.68420104       0.01261569       2.74243349       0.00000000
Si       2.70674640       2.72024897      -0.00603465       0.00000000
Si      -0.02943603      -2.70440967       2.73796338       0.00000000
Si      -2.72488450       2.72446808       0.01311118       0.00000000
Si      -0.03187953       2.72609708       2.73847916       0.00000000
