10
Lattice="16.28999089631971 0.0 0.0 0.0 16.28999089631971 0.0 0.0 0.0 34.385447050020396" Properties=species:S:1:pos:R:3:initial_magmoms:R:1 pbc="T T T"
Si       1.34708526      -1.34534782       1.35733190       0.00000000
Si      -1.33711578      -1.35796351      -1.38510160       0.00000000
Si      -1.36899531       1.36813357       1.35337757       0.00000000
Si       1.36963062       1.36228546      -1.39113625       0.00000000
Si      -2.08481049       0.55961200      -2.54750916       0.00000000
Si      -0.28287585       2.49331645      -2.68873371       0.00000000
Si       2.70190827      -2.70250027      -0.00649885       0.00000000
Si      -0.00936675      -2.70373831       2.71101893       0.00000000
Si       2.70528030       0.00921362       2.71273820       0.00000000
Si      -2.72716754      -2.70186496      -0.01014371       0.00000000
