10
Lattice="16.28999089631971 0.0 0.0 0.0 16.28999089631971 0.0 0.0 0.0 34.385447050020396" Properties=species:S:1:pos:R:3:initial_magmoms:R:1 pbc="T T T"
Si      -1.34708526       1.34534782      -1.35733190       0.00000000
Si       1.35819504       1.35456144       1.35540631       0.00000000
Si      -1.35645201      -1.35839049       1.35368704       0.00000000
Si       1.35482301      -1.35715245      -1.36383075       0.00000000
Si       0.00083079       2.71323704       2.71294452       0.00000000
Si      -2.71425609      -0.00174347       2.71229119       0.00000000
Si      -2.68420104      -0.01261569      -2.74243349       0.00000000
Si       2.71564074      -0.00186204       2.71242874       0.00000000
Si       2.71590138       2.71250399      -0.00206313       0.00000000
Si       0.00079821      -2.71673214       2.71187857       0.00000000
