10
Lattice="16.28999089631971 0.0 0.0 0.0 16.28999089631971 0.0 0.0 0.0 34.385447050020396" Properties=species:S:1:pos:R:3:initial_magmoms:R:1 pbc="T T T"
Si       1.35918873       1.35003864      -1.39525906       0.00000000
Si      -1.34897490      -1.36515048      -1.39343663       0.00000000
Si       1.38927636      -1.41542411       1.42060115       0.00000000
Si      -1.43112537       1.47485262       1.57402910       0.00000000
Si      -0.25655121      -2.69645342       2.66673045       0.00000000
Si      -2.69314425       2.71380486      -0.04098748       0.00000000
Si       2.73167010       2.70077286      -0.02176600       0.00000000
Si      -2.71896390      -2.72401610      -0.02090636       0.00000000
Si       2.71647153      -2.74289621      -0.03077499       0.00000000
Si       0.00568521       2.70883641      -2.75905543       0.00000000
