10
Lattice="16.28999089631971 0.0 0.0 0.0 16.28999089631971 0.0 0.0 0.0 34.385447050020396" Properties=species:S:1:pos:R:3:initial_magmoms:R:1 pbc="T T T"
Si       2.31010119       0.51243453      -0.19919501       0.00000000
Si      -1.34469063       1.55452212       1.19692370       0.00000000
Si      -0.63992007      -0.65327787      -2.20073861       0.00000000
Si      -0.40931883      -2.13802992       1.26345957       0.00000000
Si       0.78244128      -3.57394781      -0.23327100       0.00000000
Si       0.74352447      -2.64190568      -2.47926089       0.00000000
Si      -3.64694004       0.56412270       0.61783806       0.00000000
Si       3.39082866      -0.22260285       1.66917369       0.00000000
Si      -1.20909267       3.67196148      -0.18781342       0.00000000
Si       3.09961233       0.04698036      -2.39677016       0.00000000
