10
Lattice="16.28999089631971 0.0 0.0 0.0 16.28999089631971 0.0 0.0 0.0 34.385447050020396" Properties=species:S:1:pos:R:3:initial_magmoms:R:1 pbc="T T T"
Si       1.35672894       1.35619137      -1.35664419       0.00000000
Si      -1.35752715       1.35281934       1.36035782       0.00000000
Si      -1.35808101      -1.35896067      -1.35592209       0.00000000
Si       1.35350352      -1.35879777       1.36379636       0.00000000
Si      -2.69882946       0.00496845       2.71806795       0.00000000
Si      -0.00120546       2.71386513      -2.71394170       0.00000000
Si       2.71443528       2.71347417       0.00082525       0.00000000
Si       2.71410948      -0.00174303      -2.71431994       0.00000000
Si      -2.71590138      -0.00107514      -2.71383854       0.00000000
Si      -2.71619460       2.71365336       0.00048140       0.00000000
