10
Lattice="16.28999089631971 0.0 0.0 0.0 16.28999089631971 0.0 0.0 0.0 34.385447050020396" Properties=species:S:1:pos:R:3:initial_magmoms:R:1 pbc="T T T"
Si      -0.34893180      -2.23950589       0.48621049       0.00000000
Si       1.64744028       1.27752859       1.03300818       0.00000000
Si      -2.06159887       1.09219726       0.53128984       0.00000000
Si       0.80008335       0.36879094      -2.22893469       0.00000000
Si      -0.84937689       2.25789337      -2.42874864       0.00000000
Si       0.45851463       3.36450565       0.75201015       0.00000000
Si      -2.55056863      -2.49832141      -0.44666721       0.00000000
Si      -1.66927540       3.23149780      -0.36641153       0.00000000
Si       1.70023617       0.42101668       3.26098008       0.00000000
Si      -3.68509841      -0.42963246      -0.31046637       0.00000000
