10
Lattice="16.28999089631971 0.0 0.0 0.0 16.28999089631971 0.0 0.0 0.0 34.385447050020396" Properties=species:S:1:pos:R:3:initial_magmoms:R:1 pbc="T T T"
Si      -1.32214527       1.40481702      -1.30231515       0.00000000
Si       1.58648310      -1.56656043      -0.68554304       0.00000000
Si       1.20187620       1.32295977       1.51870289       0.00000000
Si      -1.83531285      -1.04094729       1.06921607       0.00000000
Si       0.36588969       1.73538999      -2.84058337       0.00000000
Si      -1.72302588       2.95518519       0.51516306       0.00000000
Si       0.29289420      -3.50927325      -0.37328862       0.00000000
Si       3.16081386      -1.21370274       1.06381756       0.00000000
Si      -0.52178499       2.46057192       2.53998562       0.00000000
Si      -3.31996716       0.06191829      -1.65868612       0.00000000
