10
Lattice="16.28999089631971 0.0 0.0 0.0 16.28999089631971 0.0 0.0 0.0 34.385447050020396" Properties=species:S:1:pos:R:3:initial_magmoms:R:1 pbc="T T T"
Si       1.34469063      -1.55452212      -1.19692370       0.00000000
Si       0.13559796       2.11743936      -1.38473711       0.00000000
Si       0.27753273       0.41128992       2.50291809       0.00000000
Si      -2.30224941      -0.99039942      -0.57908564       0.00000000
Si      -1.57468914       3.16151433       0.03665491       0.00000000
Si      -1.18760616       2.43072864       2.56890380       0.00000000
Si       0.93537180      -3.69255204       0.06653588       0.00000000
Si       3.65479182      -1.04208759      -1.39611870       0.00000000
Si       2.03988267       3.46646313      -0.73643353       0.00000000
Si       0.70477056      -2.20779999      -3.39766231       0.00000000
