10
Lattice="16.28999089631971 0.0 0.0 0.0 16.28999089631971 0.0 0.0 0.0 34.385447050020396" Properties=species:S:1:pos:R:3:initial_magmoms:R:1 pbc="T T T"
Si       0.30276594       0.09864735       2.31696149       0.00000000
Si      -1.92902012      -1.29866391      -0.35234787       0.00000000
Si       1.67062095      -1.48243140      -0.82487295       0.00000000
Si       0.13194900       2.32089983      -0.66828154       0.00000000
Si      -2.72392325      -0.21746498      -2.28175077       0.00000000
Si       1.40718721       2.20696757       2.61608066       0.00000000
Si       1.69849314      -1.80591822       2.79481631       0.00000000
Si      -1.78957772       0.51835594       3.25991413       0.00000000
Si       0.35678195       2.28515957      -2.97647473       0.00000000
Si       3.69831870      -0.71360856       0.20057042       0.00000000
