10
Lattice="16.28999089631971 0.0 0.0 0.0 16.28999089631971 0.0 0.0 0.0 34.385447050020396" Properties=species:S:1:pos:R:3:initial_magmoms:R:1 pbc="T T T"
Si      -2.24083611       0.08030970      -0.64135772       0.00000000
Si       1.23768162       1.97530911      -0.30592749       0.00000000
Si       0.74450187      -1.86290811      -1.29887660       0.00000000
Si       0.28577547      -0.50135733       2.33381037       0.00000000
Si       3.36891861       0.91290789      -0.46416941       0.00000000
Si      -1.22590395      -2.64653856      -2.28044412       0.00000000
Si      -2.24803629       0.68636286      -2.88507816       0.00000000
Si      -2.92695462      -2.24327961      -0.73791211       0.00000000
Si       0.93105495       3.44261457       1.54693336       0.00000000
Si      -0.45649467      -2.66861151       2.85124286       0.00000000
