10
Lattice="16.28999089631971 0.0 0.0 0.0 16.28999089631971 0.0 0.0 0.0 34.385447050020396" Properties=species:S:1:pos:R:3:initial_magmoms:R:1 pbc="T T T"
Si       1.25090910       1.54225575       1.27136823       0.00000000
Si       1.50933366      -1.19374749      -1.42531196       0.00000000
Si      -1.21150359       1.51469307      -1.41626858       0.00000000
Si      -0.89059059      -1.90430100       1.24021500       0.00000000
Si      -2.22255873       0.60375627       2.50986395       0.00000000
Si       0.93903705      -3.41109342       1.23546980       0.00000000
Si      -2.63544507      -2.67677280      -0.16281518       0.00000000
Si       2.78563887      -2.54555685       0.04700493       0.00000000
Si       0.15511338      -2.55656889      -2.79832363       0.00000000
Si      -2.55839337       0.16099407      -2.79749838       0.00000000
