10
Lattice="16.28999089631971 0.0 0.0 0.0 16.28999089631971 0.0 0.0 0.0 34.385447050020396" Properties=species:S:1:pos:R:3:initial_magmoms:R:1 pbc="T T T"
Si       1.67041732      -0.83364075       1.38030139       0.00000000
Si      -0.54170277       1.91925522       1.21480414       0.00000000
Si      -1.10442127      -2.10832022      -0.29911917       0.00000000
Si       1.07457799       0.89267571      -1.95127205       0.00000000
Si       2.11974440      -2.63120057      -0.06859901       0.00000000
Si       2.79470425       1.92469608      -0.43755506       0.00000000
Si      -1.27523821       0.11393226      -3.28436220       0.00000000
Si       1.28010892       3.36147408       0.64747833       0.00000000
Si      -3.19676493      -1.68861163       0.64383347       0.00000000
Si      -1.40718721      -2.20696757      -2.61608066       0.00000000
