10
Lattice="16.28999089631971 0.0 0.0 0.0 16.28999089631971 0.0 0.0 0.0 34.385447050020396" Properties=species:S:1:pos:R:3:initial_magmoms:R:1 pbc="T T T"
Si      -1.35746199       1.35687718       1.35822592       0.00000000
Si       1.35754344      -1.35712180       1.35867293       0.00000000
Si      -1.34718300      -1.36140151      -1.36854843       0.00000000
Si       1.35307998       1.35967906      -1.36930835       0.00000000
Si      -2.45561976       0.05719582      -2.91340835       0.00000000
Si       0.09925497      -2.74576651      -2.65768707       0.00000000
Si       2.71329498       2.71235179      -0.00398871       0.00000000
Si      -2.71265967       2.71360612      -0.00419503       0.00000000
Si      -0.00011403      -2.71457116       2.71473256       0.00000000
Si      -0.00034209       2.71482787       2.71483572       0.00000000
