10
Lattice="16.28999089631971 0.0 0.0 0.0 16.28999089631971 0.0 0.0 0.0 34.385447050020396" Properties=species:S:1:pos:R:3:initial_magmoms:R:1 pbc="T T T"
Si       1.35575154       1.35542574      -1.35987642       0.00000000
Si      -1.35560493      -1.35730628      -1.35856977       0.00000000
Si       1.35369900      -1.32123482       1.40017619       0.00000000
Si      -1.33046946       1.29958362       1.50539571       0.00000000
Si       2.16065673       0.57728502       2.66800271       0.00000000
Si      -0.41140395      -2.34795005       2.63764035       0.00000000
Si      -2.19173805      -0.60574528       2.79295950       0.00000000
Si       0.36748611       2.44905489       2.84199317       0.00000000
Si      -2.70290196       2.70738171       0.01808676       0.00000000
Si      -2.71423980      -0.00143678      -2.71768971       0.00000000
