10
Lattice="16.28999089631971 0.0 0.0 0.0 16.28999089631971 0.0 0.0 0.0 34.385447050020396" Properties=species:S:1:pos:R:3:initial_magmoms:R:1 pbc="T T T"
Si       1.54305396       0.04262116      -1.78725338       0.00000000
Si      -1.93789098       0.95642174      -1.02231430       0.00000000
Si       1.38790800       1.49565332       1.25737334       0.00000000
Si      -0.91821843      -1.92862590       1.08799054       0.00000000
Si       0.52471719       3.50318405       0.30860956       0.00000000
Si      -1.74026070       3.11230550      -0.07736730       0.00000000
Si       0.79741179      -1.78897173      -3.04579583       0.00000000
Si       0.88884756      -3.09598359       2.03816413       0.00000000
Si      -1.93290624       0.47673500      -3.40068823       0.00000000
Si       1.39282758       2.03130110      -3.09568914       0.00000000
