10
Lattice="16.28999089631971 0.0 0.0 0.0 16.28999089631971 0.0 0.0 0.0 34.385447050020396" Properties=species:S:1:pos:R:3:initial_magmoms:R:1 pbc="T T T"
Si      -2.03188428       0.84062916      -0.96757264       0.00000000
Si       0.41145282       0.92282850       2.36303801       0.00000000
Si       0.70641585      -2.23303320      -1.16618309       0.00000000
Si       2.54466090       1.08445788      -1.17742714       0.00000000
Si       1.69153731      -0.63377874      -2.60335804       0.00000000
Si      -0.90062523       2.14940034      -2.54978548       0.00000000
Si       1.00769940       3.04007238      -1.38484027       0.00000000
Si       3.67738605       0.50068944       0.90598827       0.00000000
Si       2.46257559      -0.19228716       2.92823192       0.00000000
Si      -1.55962089       0.15299568       3.50948384       0.00000000
