10
Lattice="16.28999089631971 0.0 0.0 0.0 16.28999089631971 0.0 0.0 0.0 34.385447050020396" Properties=species:S:1:pos:R:3:initial_magmoms:R:1 pbc="T T T"
Si      -1.98876465      -0.67263039      -0.94855747       0.00000000
Si       0.00016290       0.59064282       2.24784670       0.00000000
Si       1.74553866      -1.68961509      -0.18358400       0.00000000
Si       0.74679876       2.01818439      -1.16649256       0.00000000
Si       2.34468486       1.09314045       2.32401051       0.00000000
Si       2.70010008       2.36012778       0.27212658       0.00000000
Si      -2.87668368       1.35286821      -1.74293051       0.00000000
Si      -1.15277814      -1.08506061       3.41072878       0.00000000
Si       0.58601646      -3.73065435      -0.73925314       0.00000000
Si      -3.67679961      -1.00320336       0.58971075       0.00000000
