10
Lattice="16.28999089631971 0.0 0.0 0.0 16.28999089631971 0.0 0.0 0.0 34.385447050020396" Properties=species:S:1:pos:R:3:initial_magmoms:R:1 pbc="T T T"
Si       0.87197112      -0.87790068       2.03352209       0.00000000
Si       1.97107371       0.76983282      -1.14644583       0.00000000
Si      -1.15952220      -2.04103926      -0.55566913       0.00000000
Si      -1.74553866       1.68961509       0.18358400       0.00000000
Si      -2.51370990      -2.28496572       1.39006686       0.00000000
Si      -1.74537576       2.28025791       2.43143071       0.00000000
Si       0.59914620       2.78275554       2.50759451       0.00000000
Si      -0.93937914      -1.93210803       3.13942746       0.00000000
Si       1.55962089      -0.15299568      -3.50948384       0.00000000
Si       1.73903895       0.87814503       3.33473690       0.00000000
