10
Lattice="16.28999089631971 0.0 0.0 0.0 16.28999089631971 0.0 0.0 0.0 34.385447050020396" Properties=species:S:1:pos:R:3:initial_magmoms:R:1 pbc="T T T"
Si       0.95874795      -1.98746145       0.63276135       0.00000000
Si      -0.48627279       1.41659469       1.82927242       0.00000000
Si       1.81135026       1.05420735      -1.10590537       0.00000000
Si      -1.57433076      -0.35285769      -1.74936060       0.00000000
Si      -1.95893766       2.53666251       0.45488533       0.00000000
Si       1.91404242      -2.59947675      -1.47004745       0.00000000
Si      -3.16081386       1.21370274      -1.06381756       0.00000000
Si      -0.70592715      -3.01131564       1.86740590       0.00000000
Si       1.58548941       2.41236981       2.31527660       0.00000000
Si       2.61980667      -1.45674954       2.17240499       0.00000000
