10
Lattice="16.28999089631971 0.0 0.0 0.0 16.28999089631971 0.0 0.0 0.0 34.385447050020396" Properties=species:S:1:pos:R:3:initial_magmoms:R:1 pbc="T T T"
Si       0.86706783       1.75604571       1.30121481       0.00000000
Si      -1.81135026      -1.05420735       1.10590537       0.00000000
Si      -0.87197112       0.87790068      -2.03352209       0.00000000
Si       1.56827088      -1.81640016      -0.21281165       0.00000000
Si      -2.03149332      -1.16313858      -2.58919122       0.00000000
Si      -0.85260231      -3.04166880       1.73866672       0.00000000
Si       0.10269216      -3.65368410      -0.36414209       0.00000000
Si      -0.22586085       1.35816246       3.42118197       0.00000000
Si      -0.27282492       3.66065622       0.47407242       0.00000000
Si      -3.38568102      -1.40706504      -0.64345523       0.00000000
