10
Lattice="16.28999089631971 0.0 0.0 0.0 16.28999089631971 0.0 0.0 0.0 34.385447050020396" Properties=species:S:1:pos:R:3:initial_magmoms:R:1 pbc="T T T"
Si       1.06086996       0.35253189      -2.08358733       0.00000000
Si       1.30005603      -1.15596121       1.61635761       0.00000000
Si       0.35365590       2.25401472       0.97537814       0.00000000
Si      -2.15722673      -1.23823548      -0.32951592       0.00000000
Si      -0.96844213       1.37674935       2.81809527       0.00000000
Si      -0.24107082      -0.77362187       3.49050307       0.00000000
Si      -0.54734726       1.74319290      -3.25379352       0.00000000
Si      -3.67592714       0.53416539      -0.86352221       0.00000000
Si      -1.24183394       3.66151959      -0.10587285       0.00000000
Si       1.33512840      -1.63288191      -3.33054188       0.00000000
