10
Lattice="16.28999089631971 0.0 0.0 0.0 16.28999089631971 0.0 0.0 0.0 34.385447050020396" Properties=species:S:1:pos:R:3:initial_magmoms:R:1 pbc="T T T"
Si       2.27190114       0.51605091       0.32597422       0.00000000
Si      -0.80617581       0.03101616       2.29715546       0.00000000
Si      -0.56746215       2.07493875      -1.21201891       0.00000000
Si      -0.27969930      -2.98914984      -1.19699247       0.00000000
Si       2.75988438      -0.78970662      -1.61426010       0.00000000
Si       0.85155975      -1.68037866      -2.77920531       0.00000000
Si      -2.06527878       1.00046664      -2.75537618       0.00000000
Si       2.72518668      -0.57003597       2.31018755       0.00000000
Si      -1.17444384       3.41130519       0.68385815       0.00000000
Si      -1.80524151       2.14151598       2.55542470       0.00000000
