10
Lattice="16.28999089631971 0.0 0.0 0.0 16.28999089631971 0.0 0.0 0.0 34.385447050020396" Properties=species:S:1:pos:R:3:initial_magmoms:R:1 pbc="T T T"
Si       1.14002307      -0.06472017       2.07963300       0.00000000
Si      -0.04619844       2.08977894      -1.12230723       0.00000000
Si       1.18578168      -1.37875302      -1.53771805       0.00000000
Si      -2.25103365      -0.78051906       0.04968700       0.00000000
Si      -0.65329416      -2.57227245      -2.35131257       0.00000000
Si      -3.20039856       0.19088622      -1.89656478       0.00000000
Si      -3.21966963       0.31540698       1.89047855       0.00000000
Si       2.66093892       0.10547775      -2.65125699       0.00000000
Si      -2.12222862       2.22309630      -2.25317645       0.00000000
Si      -2.10531960      -3.13440777      -0.52908917       0.00000000
