10
Lattice="16.28999089631971 0.0 0.0 0.0 16.28999089631971 0.0 0.0 0.0 34.385447050020396" Properties=species:S:1:pos:R:3:initial_magmoms:R:1 pbc="T T T"
Si       0.99693171      -2.13422621      -0.06423205       0.00000000
Si      -2.27633202      -0.05950737       0.72498317       0.00000000
Si       1.54763145       1.29751479       1.30118043       0.00000000
Si       2.45413737      -1.15343137      -1.60071223       0.00000000
Si      -1.45707534      -0.55732977       2.92059835       0.00000000
Si       0.00850338       1.27995417       3.07192879       0.00000000
Si      -3.08646630      -1.46819978      -1.03259555       0.00000000
Si      -0.16570188       1.58822613      -3.42444859       0.00000000
Si      -0.19735335      -2.54101913       2.92183623       0.00000000
Si       1.62746874      -0.28354374      -3.59843904       0.00000000
