10
Lattice="16.28999089631971 0.0 0.0 0.0 16.28999089631971 0.0 0.0 0.0 34.385447050020396" Properties=species:S:1:pos:R:3:initial_magmoms:R:1 pbc="T T T"
Si      -1.35538080      -1.35650088      -1.35602525       0.00000000
Si      -1.35720404       1.35723393       1.35530315       0.00000000
Si       1.35617834       1.35752715      -1.35726312       0.00000000
Si       1.35774218      -1.35780408       1.35609402       0.00000000
Si      -0.00858157      -2.70620883      -2.70998737       0.00000000
Si       0.00578621       2.70643689      -2.71328837       0.00000000
Si      -2.71378761      -0.00079821       2.71270382       0.00000000
Si      -0.00175443      -2.71406061       2.71263505       0.00000000
Si       2.71461773       0.00001629       2.71294452       0.00000000
Si       0.00055060       2.71599912       2.71260066       0.00000000
