10
Lattice="16.28999089631971 0.0 0.0 0.0 16.28999089631971 0.0 0.0 0.0 34.385447050020396" Properties=species:S:1:pos:R:3:initial_magmoms:R:1 pbc="T T T"
Si       1.35627282       1.35552348      -1.35705681       0.00000000
Si      -1.35472527       1.35335691       1.36080483       0.00000000
Si       1.35449721      -1.36045935       1.35918871       0.00000000
Si      -1.35808101      -1.35946566      -1.35674734       0.00000000
Si      -0.00592956       2.70487305       2.72250368       0.00000000
Si       2.71524978       2.71239903       0.00010316       0.00000000
Si      -0.00076563       2.71336014      -2.71435432       0.00000000
Si       2.71435383      -0.00117288      -2.71346030       0.00000000
Si      -2.71570590       2.71303434       0.00068771       0.00000000
Si      -2.71603170      -0.00218286      -2.71445748       0.00000000
