10
Lattice="16.28999089631971 0.0 0.0 0.0 16.28999089631971 0.0 0.0 0.0 34.385447050020396" Properties=species:S:1:pos:R:3:initial_magmoms:R:1 pbc="T T T"
Si      -1.13272515       0.58376844      -2.08341540       0.00000000
Si      -1.21481046      -0.69297660       2.02224366       0.00000000
Si       1.66469206      -1.81424988      -0.30438015       0.00000000
Si       0.69441012       2.37648294       0.57867301       0.00000000
Si      -3.26593323       0.42213906       1.45704975       0.00000000
Si      -0.20797443       0.81210537       3.61456583       0.00000000
Si      -3.67738605      -0.50068944      -0.90598827       0.00000000
Si       0.58396392       1.46803851      -3.54937098       0.00000000
Si      -0.54100719       2.94431976       2.53919476       0.00000000
Si       2.75930513       2.31441804       1.60511357       0.00000000
