10
Lattice="16.28999089631971 0.0 0.0 0.0 16.28999089631971 0.0 0.0 0.0 34.385447050020396" Properties=species:S:1:pos:R:3:initial_magmoms:R:1 pbc="T T T"
Si       0.45328554      -1.08608688       1.98421333       0.00000000
Si      -2.27190114      -0.51605091      -0.32597422       0.00000000
Si       0.48798324      -1.30575753      -1.94023432       0.00000000
Si       0.66031515       2.17135926       1.00897274       0.00000000
Si       1.30696299       0.51116391      -3.18835797       0.00000000
Si      -2.83936329       1.55888784      -1.53799314       0.00000000
Si      -1.12477563      -0.14309136       3.40980038       0.00000000
Si      -3.07807695      -0.48503475       1.97118124       0.00000000
Si       2.91195153       1.57058406      -1.77367112       0.00000000
Si      -0.10826334      -3.42300141       1.80764396       0.00000000
