10
Lattice="16.28999089631971 0.0 0.0 0.0 16.28999089631971 0.0 0.0 0.0 34.385447050020396" Properties=species:S:1:pos:R:3:initial_magmoms:R:1 pbc="T T T"
Si      -1.83907584      -1.19351943      -0.81359452       0.00000000
Si       1.20964653      -1.58842161       1.23124039       0.00000000
Si       1.47515724       1.48423077      -1.11353894       0.00000000
Si      -1.18578168       1.37875302       1.53771805       0.00000000
Si       3.41632251       0.77129892       0.03641421       0.00000000
Si       2.88378612      -0.12567735       2.12402464       0.00000000
Si      -1.23198012       3.46853196       0.41541082       0.00000000
Si       0.49358700       3.58992504      -1.11250738       0.00000000
Si      -3.43681533       0.59823396       1.58740505       0.00000000
Si      -0.04575861       1.31403285       3.61735105       0.00000000
