10
Lattice="16.28999089631971 0.0 0.0 0.0 16.28999089631971 0.0 0.0 0.0 34.385447050020396" Properties=species:S:1:pos:R:3:initial_magmoms:R:1 pbc="T T T"
Si      -0.79490313       1.08119892      -1.92940290       0.00000000
Si      -1.98918819       0.67440600       1.05666538       0.00000000
Si       1.92902012       1.29866391       0.35234787       0.00000000
Si      -0.32410584      -2.24024967       0.88621662       0.00000000
Si      -1.41299460       0.10194282       3.21985506       0.00000000
Si      -3.46822245      -0.71193816      -0.13365631       0.00000000
Si       3.59964107      -0.18376749      -0.47252508       0.00000000
Si      -2.31006861      -2.81699712      -0.24774728       0.00000000
Si       2.23178606       1.39731126       2.66930936       0.00000000
Si      -0.43142436      -2.00375145       3.21882350       0.00000000
