10
Lattice="16.28999089631971 0.0 0.0 0.0 16.28999089631971 0.0 0.0 0.0 34.385447050020396" Properties=species:S:1:pos:R:3:initial_magmoms:R:1 pbc="T T T"
Si      -1.10931642       0.21017358      -2.06323113       0.00000000
Si      -0.34842681      -1.13857326       2.06288728       0.00000000
Si       2.25747539       0.50733576      -0.59091424       0.00000000
Si      -0.60110100       2.08772640       1.30798875       0.00000000
Si      -2.54850534       0.61646247       1.77710967       0.00000000
Si      -1.57506381      -2.68420104       0.74097241       0.00000000
Si      -0.21670587       2.43072864      -2.34673930       0.00000000
Si       3.20350085      -1.63502730      -0.95199602       0.00000000
Si      -0.41660046      -1.73986974      -3.26349022       0.00000000
Si       1.96933135       1.64141298      -2.71487010       0.00000000
