10
Lattice="16.28999089631971 0.0 0.0 0.0 16.28999089631971 0.0 0.0 0.0 34.385447050020396" Properties=species:S:1:pos:R:3:initial_magmoms:R:1 pbc="T T T"
Si       0.15965829      -0.67706127      -2.20637783       0.00000000
Si      -1.45393626       1.80807597       0.40671129       0.00000000
Si       1.99782189       1.34289873       0.35637097       0.00000000
Si      -0.23547195      -2.13488595       1.21418520       0.00000000
Si       1.48465431      -1.10286558       2.72790220       0.00000000
Si      -0.63645030       2.28731148       2.57915067       0.00000000
Si       1.34858394      -2.76403833      -1.92537980       0.00000000
Si       3.31996716      -0.06191829       1.65868612       0.00000000
Si      -0.87351867       3.31859880      -1.41530579       0.00000000
Si      -0.02994102       0.33391242       3.81293558       0.00000000
