10
Lattice="16.28999089631971 0.0 0.0 0.0 16.28999089631971 0.0 0.0 0.0 34.385447050020396" Properties=species:S:1:pos:R:3:initial_magmoms:R:1 pbc="T T T"
Si       1.02051800      -1.59541002      -1.41097322       0.00000000
Si      -1.61436411       1.37907882      -1.09937213       0.00000000
Si      -0.67423563      -1.66016277       1.60356622       0.00000000
Si       2.06957771       1.20741480       0.48284072       0.00000000
Si       2.00541140       0.16169454      -2.61687152       0.00000000
Si      -1.81254825       2.65147443       0.83797381       0.00000000
Si       1.39065938      -1.72222767       2.63000677       0.00000000
Si       2.07677789       0.60136164       2.72656116       0.00000000
Si      -0.78468183      -2.56860720      -2.52447778       0.00000000
Si       3.09171005      -2.12548662       1.08747476       0.00000000
