10
Lattice="16.28999089631971 0.0 0.0 0.0 16.28999089631971 0.0 0.0 0.0 34.385447050020396" Properties=species:S:1:pos:R:3:initial_magmoms:R:1 pbc="T T T"
Si       0.34872003       2.23480881      -0.42703311       0.00000000
Si       0.00720018      -0.60605316       2.24372044       0.00000000
Si       1.68068817      -0.27324846      -1.69668206       0.00000000
Si      -2.06957771      -1.20741480      -0.48284072       0.00000000
Si      -0.06416631      -1.04572026      -3.09971224       0.00000000
Si       1.02213234      -3.33290142       0.60463404       0.00000000
Si      -1.04905971      -2.80282482      -1.89381394       0.00000000
Si      -0.67891833      -2.92964247       2.14716606       0.00000000
Si      -1.45206779       0.97344153       3.26823541       0.00000000
Si       2.24803629      -0.68636286       2.88507816       0.00000000
