10
Lattice="16.28999089631971 0.0 0.0 0.0 16.28999089631971 0.0 0.0 0.0 34.385447050020396" Properties=species:S:1:pos:R:3:initial_magmoms:R:1 pbc="T T T"
Si      -0.00720018       0.60605316      -2.24372044       0.00000000
Si       2.24083611      -0.08030970       0.64135772       0.00000000
Si      -1.45926797       1.57949469       1.02451497       0.00000000
Si      -0.68611851      -2.32358931      -0.09655439       0.00000000
Si       1.01493216      -2.72684826      -1.63908641       0.00000000
Si      -2.07677789      -0.60136164      -2.72656116       0.00000000
Si       2.98533798      -1.94321781      -0.65751889       0.00000000
Si      -2.75101352      -2.26152441      -1.12299494       0.00000000
Si      -0.41264199       1.65297888       3.32359601       0.00000000
Si      -3.17792555       0.24083136       2.03610100       0.00000000
