10
Lattice="16.28999089631971 0.0 0.0 0.0 16.28999089631971 0.0 0.0 0.0 34.385447050020396" Properties=species:S:1:pos:R:3:initial_magmoms:R:1 pbc="T T T"
Si       1.35580385       1.35552348       1.35767575       0.00000000
Si       1.35658903      -1.35728280      -1.35764136       0.00000000
Si      -1.35799190       1.35664749      -1.35777891       0.00000000
Si      -1.35720998      -1.35861858       1.35819153       0.00000000
Si      -2.71390634      -0.00004887      -2.71349468       0.00000000
Si       2.71521575       2.71484206       0.00006877       0.00000000
Si       0.00121312       2.71697998       2.71328837       0.00000000
Si       0.00105022      -2.71482624      -2.71552343       0.00000000
Si       2.71684475       0.00223173       2.71356346       0.00000000
Si      -2.71514438      -2.71541268      -0.00013754       0.00000000
