10
Lattice="16.28999089631971 0.0 0.0 0.0 16.28999089631971 0.0 0.0 0.0 34.385447050020396" Properties=species:S:1:pos:R:3:initial_magmoms:R:1 pbc="T T T"
Si      -1.35553881      -1.35754344      -1.35788206       0.00000000
Si      -1.35658903       1.35728280       1.35764136       0.00000000
Si       1.35867559      -1.35804843       1.35746944       0.00000000
Si       1.35924574       1.35684297      -1.35905117       0.00000000
Si      -0.00078518       2.71280628       2.71531711       0.00000000
Si      -2.71458093       2.71393029      -0.00013754       0.00000000
Si       0.00153289      -2.71428867       2.71442309       0.00000000
Si      -2.71402707      -2.71528236       0.00065332       0.00000000
Si      -2.71379901      -0.00133578       2.71583290       0.00000000
Si       2.71617017      -0.00115659       2.71483572       0.00000000
