10
Lattice="16.28999089631971 0.0 0.0 0.0 16.28999089631971 0.0 0.0 0.0 34.385447050020396" Properties=species:S:1:pos:R:3:initial_magmoms:R:1 pbc="T T T"
Si      -1.35580385      -1.35552348      -1.35767575       0.00000000
Si       1.36104090      -1.35329175       1.35588771       0.00000000
Si      -1.35459073       1.36145650       1.35561262       0.00000000
Si       1.35941190       1.35931858      -1.35760698       0.00000000
Si       0.00751621      -2.71857294       2.69802123       0.00000000
Si      -2.71301383      -2.71414206       0.00051578       0.00000000
Si       0.00078518      -2.71280628      -2.71531711       0.00000000
Si      -2.71379575       0.00112401      -2.71545466       0.00000000
Si      -2.71382833       2.71607798      -0.00027508       0.00000000
Si       2.71695534      -2.71396287      -0.00048140       0.00000000
