10
Lattice="16.28999089631971 0.0 0.0 0.0 16.28999089631971 0.0 0.0 0.0 34.385447050020396" Properties=species:S:1:pos:R:3:initial_magmoms:R:1 pbc="T T T"
Si      -0.39882807      -0.43588782       2.19668113       0.00000000
Si       0.80190783      -1.52586801      -1.51732747       0.00000000
Si       0.34893180       2.23950589      -0.48621049       0.00000000
Si      -2.20163683      -0.25881552      -0.93287770       0.00000000
Si      -0.91109481      -0.74604942      -2.87018925       0.00000000
Si       1.62886968       0.33293502       3.22212450       0.00000000
Si      -0.99887999      -2.78723529       2.17794105       0.00000000
Si      -1.71266707       3.33170315       0.04507935       0.00000000
Si      -2.06944902       1.04654358       3.02155408       0.00000000
Si      -3.33616661       1.80987343      -0.79667687       0.00000000
