10
Lattice="16.28999089631971 0.0 0.0 0.0 16.28999089631971 0.0 0.0 0.0 34.185847837958455" Properties=species:S:1:pos:R:3:initial_magmoms:R:1 pbc="T T T"
Si       1.33815834       1.34039007      -1.35871386       0.00000000
Si      -1.35922131       1.35584928       1.35895658       0.00000000
Si       1.35547461      -1.36047564       1.35892240       0.00000000
Si      -1.36531377      -1.36405944      -1.39399710       0.00000000
Si       2.64098367      -0.09715356      -2.72423071       0.00000000
Si      -2.71277370       2.70705591       0.00129906       0.00000000
Si       2.71288773      -2.71535566       0.00225627       0.00000000
Si      -0.00079821       2.71349046       2.71572527       0.00000000
Si       2.71438641      -0.00164529       2.71586201       0.00000000
Si       2.71630863       2.71485882       0.00129906       0.00000000
