10
Lattice="16.28999089631971 0.0 0.0 0.0 16.28999089631971 0.0 0.0 0.0 34.185847837958455" Properties=species:S:1:pos:R:3:initial_magmoms:R:1 pbc="T T T"
Si      -0.13538619       0.83245158      -2.22686737       0.00000000
Si       2.16792207      -0.88562214       0.51473660       0.00000000
Si      -0.50961636       1.98334008       1.27458586       0.00000000
Si      -1.00165581      -2.12582871       0.60153451       0.00000000
Si      -0.43474752       1.24206363       3.45229396       0.00000000
Si       0.21181887      -3.60320139      -0.79847929       0.00000000
Si      -0.04921209      -2.45983887       2.76536315       0.00000000
Si       2.08583676      -1.40814018       2.78888303       0.00000000
Si       0.52494525      -0.93239073      -3.63412859       0.00000000
Si       1.35907470       2.71101438      -2.30505045       0.00000000
