10
Lattice="16.28999089631971 0.0 0.0 0.0 16.28999089631971 0.0 0.0 0.0 34.185847837958455" Properties=species:S:1:pos:R:3:initial_magmoms:R:1 pbc="T T T"
Si      -1.48693491       0.21302433      -1.86353998       0.00000000
Si      -0.91637766      -0.25283709       2.19992891       0.00000000
Si       1.32111900       2.01574089      -0.18142440       0.00000000
Si       0.93418263      -2.23876728      -0.32815014       0.00000000
Si      -2.17973232      -2.01328110      -2.08277394       0.00000000
Si      -0.10287135       1.22719086      -3.53064797       0.00000000
Si      -0.00772146      -2.88114714      -2.42049612       0.00000000
Si       3.49220133       1.32027192       0.52711188       0.00000000
Si       0.27921060      -2.05959357       3.17993516       0.00000000
Si      -3.22867963      -0.74652183       2.06308288       0.00000000
