10
Lattice="16.28999089631971 0.0 0.0 0.0 16.28999089631971 0.0 0.0 0.0 34.185847837958455" Properties=species:S:1:pos:R:3:initial_magmoms:R:1 pbc="T T T"
Si       2.22837426      -0.59372163       0.41761455       0.00000000
Si      -1.57771908      -1.71624924       0.30172446       0.00000000
Si      -0.26184546       0.65430414      -2.29869188       0.00000000
Si      -0.67461777       1.39048182       1.86822344       0.00000000
Si      -3.38870281      -0.13302414       0.69599007       0.00000000
Si      -1.26239355       3.30366087       0.60488473       0.00000000
Si       3.29939289       1.57969017       0.48803744       0.00000000
Si       2.30324310      -1.33499808       2.59532265       0.00000000
Si       1.28394522       2.44672542      -2.49351713       0.00000000
Si      -2.48722236       0.21499542       2.89677362       0.00000000
