10
Lattice="16.28999089631971 0.0 0.0 0.0 16.28999089631971 0.0 0.0 0.0 34.185847837958455" Properties=species:S:1:pos:R:3:initial_magmoms:R:1 pbc="T T T"
Si       1.34372952       1.33257087      -1.36920892       0.00000000
Si      -1.35918873       1.35242838       1.35413638       0.00000000
Si       1.35539316      -1.36129014       1.35478591       0.00000000
Si      -1.36425492      -1.35446463      -1.37761523       0.00000000
Si      -0.04577490       2.65816962      -2.75245115       0.00000000
Si       2.57974956      -0.12383658      -2.83005990       0.00000000
Si      -0.00128691       2.71248048       2.71199901       0.00000000
Si       2.71329498      -0.00239463       2.71172552       0.00000000
Si      -2.71652529      -0.00312768       2.71175971       0.00000000
Si      -0.00110772      -2.71801908       2.71199901       0.00000000
