10
Lattice="16.28999089631971 0.0 0.0 0.0 16.28999089631971 0.0 0.0 0.0 34.185847837958455" Properties=species:S:1:pos:R:3:initial_magmoms:R:1 pbc="T T T"
Si      -1.24718751       1.74345354      -0.85088623       0.00000000
Si      -0.81132345      -0.83845444       2.05180155       0.00000000
Si      -0.01325843      -1.54206746      -1.79790311       0.00000000
Si       2.24506988       0.73871892       0.29591286       0.00000000
Si       1.11179087      -2.18519666       2.70270045       0.00000000
Si       2.96218826      -0.74173257       2.01659011       0.00000000
Si      -0.18491105       2.36167533      -2.92227628       0.00000000
Si      -0.72326134       1.06227090       3.57098729       0.00000000
Si      -3.04700445      -1.72845764       1.65022017       0.00000000
Si      -3.44803167       1.14592005      -1.38247646       0.00000000
