10
Lattice="16.28999089631971 0.0 0.0 0.0 16.28999089631971 0.0 0.0 0.0 34.185847837958455" Properties=species:S:1:pos:R:3:initial_magmoms:R:1 pbc="T T T"
Si       1.58420250       0.73713879       1.51573297       0.00000000
Si      -0.58777578       1.91317905      -1.26333871       0.00000000
Si      -1.81260459      -1.17548640       1.02855018       0.00000000
Si       0.67461777      -1.39048182      -1.86822344       0.00000000
Si      -2.59411734       0.84955608      -1.88299174       0.00000000
Si      -2.71408505      -1.52350596      -1.17223338       0.00000000
Si       2.99550294       1.95155829       0.06802988       0.00000000
Si      -0.90310131      -3.10673106      -1.56649898       0.00000000
Si       2.90299203      -1.98420345      -1.45060889       0.00000000
Si      -2.74327347       0.19640853       2.75466297       0.00000000
