10
Lattice="16.28999089631971 0.0 0.0 0.0 16.28999089631971 0.0 0.0 0.0 34.185847837958455" Properties=species:S:1:pos:R:3:initial_magmoms:R:1 pbc="T T T"
Si      -1.43948214      -0.09396072       1.77749415       0.00000000
Si       0.31825773      -1.10563488      -2.03098236       0.00000000
Si       2.08611369       0.99289179       0.35136234       0.00000000
Si      -1.26644976       1.99415664      -0.20511520       0.00000000
Si       0.07578108      -0.56971017       3.51953756       0.00000000
Si       1.89703566      -2.70102861      -1.41109003       0.00000000
Si       3.02143662      -0.29014119       2.04985295       0.00000000
Si       1.81037286      -2.28441186       2.25855767       0.00000000
Si       0.34223661       3.72327498      -0.26600023       0.00000000
Si       3.23695332       0.87338835      -1.81014165       0.00000000
