10
Lattice="16.28999089631971 0.0 0.0 0.0 16.28999089631971 0.0 0.0 0.0 34.185847837958455" Properties=species:S:1:pos:R:3:initial_magmoms:R:1 pbc="T T T"
Si       0.93532293      -1.28303298       1.69849061       0.00000000
Si      -2.08611369      -0.99289179      -0.35136234       0.00000000
Si       0.04566087       2.16679806       0.92346282       0.00000000
Si       1.15083963      -0.11950344      -2.16150400       0.00000000
Si      -1.74387708       2.73038319      -0.61736257       0.00000000
Si      -3.35256345       1.00126485      -0.55647754       0.00000000
Si       3.18987522      -1.14005565       1.15821717       0.00000000
Si      -1.76785596      -2.09852667      -2.38234470       0.00000000
Si       1.81260459      -2.36455866      -2.14711175       0.00000000
Si      -0.27574083      -3.27730365       1.90719533       0.00000000
