10
Lattice="16.28999089631971 0.0 0.0 0.0 16.28999089631971 0.0 0.0 0.0 34.185847837958455" Properties=species:S:1:pos:R:3:initial_magmoms:R:1 pbc="T T T"
Si       1.35651717       1.35589815      -1.35779426       0.00000000
Si      -1.35692442       1.35746199       1.35714473       0.00000000
Si       1.35809730      -1.35821133       1.35700799       0.00000000
Si      -1.35790182      -1.35889551      -1.35693962       0.00000000
Si      -2.71329498       0.00239463      -2.71172552       0.00000000
Si      -0.00001629       2.71383255       2.71480225       0.00000000
Si       2.71422351      -0.00125433       2.71510992       0.00000000
Si      -2.71458189       2.71487511       0.00027349       0.00000000
Si       0.00182448      -2.71575477       2.71374249       0.00000000
Si      -2.71440270      -2.71562445       0.00027349       0.00000000
