10
Lattice="16.28999089631971 0.0 0.0 0.0 16.28999089631971 0.0 0.0 0.0 34.185847837958455" Properties=species:S:1:pos:R:3:initial_magmoms:R:1 pbc="T T T"
Si       1.69694559      -1.54776177       0.26241071       0.00000000
Si      -1.42765560      -1.29590208      -1.37338302       0.00000000
Si      -0.64005039       0.32650047       2.26057464       0.00000000
Si       0.79619004       1.69740171      -1.47033414       0.00000000
Si      -1.33946154       2.73311991      -1.95026952       0.00000000
Si      -0.12805569      -1.44300078      -3.35093286       0.00000000
Si       1.51628949       0.35451927      -3.41855251       0.00000000
Si       1.21976262      -2.93026149       2.11149007       0.00000000
Si       3.78815805      -0.38657799       0.45610784       0.00000000
Si       0.27311814      -1.40089113       3.57826888       0.00000000
