10
Lattice="16.28999089631971 0.0 0.0 0.0 16.28999089631971 0.0 0.0 0.0 34.185847837958455" Properties=species:S:1:pos:R:3:initial_magmoms:R:1 pbc="T T T"
Si      -0.79619004      -1.69740171       1.47033414       0.00000000
Si      -2.13565158       1.03571820      -0.47993539       0.00000000
Si       0.72009945      -1.34288244      -1.94821837       0.00000000
Si       1.78893522       1.48528962       0.88500372       0.00000000
Si      -1.75769100       3.26957309       0.04389465       0.00000000
Si      -2.22384564      -2.99330379       0.09695112       0.00000000
Si      -0.92424573      -3.14040249      -1.88059873       0.00000000
Si       0.90075555      -3.24516348       1.73274485       0.00000000
Si       2.98323657       0.21602169       2.49122668       0.00000000
Si       0.49629114       0.34787295      -3.99345623       0.00000000
