10
Lattice="16.28999089631971 0.0 0.0 0.0 16.28999089631971 0.0 0.0 0.0 34.185847837958455" Properties=species:S:1:pos:R:3:initial_magmoms:R:1 pbc="T T T"
Si       1.60868637       1.72911834      -0.06088503       0.00000000
Si      -1.68958251       0.33342372      -1.61969219       0.00000000
Si       1.26644976      -1.99415664       0.20511520       0.00000000
Si      -1.88545347       0.52743762       1.67527841       0.00000000
Si      -0.17303238      -2.08811736       1.98260935       0.00000000
Si       3.35256345      -1.00126485       0.55647754       0.00000000
Si       0.46815831       3.26616129       1.52151038       0.00000000
Si      -2.14645185       2.70430290      -1.13271452       0.00000000
Si      -1.94181687       2.89105146       1.21807663       0.00000000
Si       3.39822432       1.16553321       1.47994037       0.00000000
