10
Lattice="16.28999089631971 0.0 0.0 0.0 16.28999089631971 0.0 0.0 0.0 34.185847837958455" Properties=species:S:1:pos:R:3:initial_magmoms:R:1 pbc="T T T"
Si      -1.10964222       1.46942805       1.47617650       0.00000000
Si       1.39878972       1.23403755      -1.50368728       0.00000000
Si       1.58026032      -1.24291301       1.45774006       0.00000000
Si      -1.84015098      -0.96120774      -1.40109549       0.00000000
Si      -2.53969245       2.72584317       0.11004431       0.00000000
Si      -2.46778839       0.10764106       2.83653129       0.00000000
Si      -3.41830989       0.86510163      -1.31850243       0.00000000
Si      -2.68249059      -2.68273724       0.07480893       0.00000000
Si       0.24938361      -2.60547377       2.83106155       0.00000000
Si       2.88484497       2.64792810       0.08047353       0.00000000
