10
Lattice="16.28999089631971 0.0 0.0 0.0 16.28999089631971 0.0 0.0 0.0 34.185847837958455" Properties=species:S:1:pos:R:3:initial_magmoms:R:1 pbc="T T T"
Si      -1.35692442       1.35654952      -1.35663194       0.00000000
Si       1.35653346       1.35700238       1.35659776       0.00000000
Si       1.35733167      -1.35700188      -1.35693962       0.00000000
Si      -1.35760860      -1.35854943       1.35765752       0.00000000
Si      -0.00086337       2.71325728      -2.71391342       0.00000000
Si       2.71406061      -0.00191958      -2.71480225       0.00000000
Si      -2.71472850       2.71433242       0.00030767       0.00000000
Si       0.00055386       2.71278487       2.71640899       0.00000000
Si      -2.71451673      -2.71491999       0.00000000       0.00000000
Si       2.71513575      -2.71519692       0.00023930       0.00000000
