10
Lattice="16.28999089631971 0.0 0.0 0.0 16.28999089631971 0.0 0.0 0.0 34.185847837958455" Properties=species:S:1:pos:R:3:initial_magmoms:R:1 pbc="T T T"
Si      -1.35672894      -1.35508230       1.35786263       0.00000000
Si      -1.35751086       1.36029684      -1.35577730       0.00000000
Si       1.35966114      -1.35281799      -1.36124704       0.00000000
Si       1.35842310       1.35917446       1.35782845       0.00000000
Si       2.69053785       0.00974277      -2.73456852       0.00000000
Si       0.00107514      -2.71327734       2.71504155       0.00000000
Si      -2.71406061       0.00191958       2.71480225       0.00000000
Si      -2.71513575      -2.71456425      -0.00013674       0.00000000
Si      -2.71492398       2.71517687       0.00088883       0.00000000
Si       2.71611315       0.00168492       2.71510992       0.00000000
