10
Lattice="16.28999089631971 0.0 0.0 0.0 16.28999089631971 0.0 0.0 0.0 34.185847837958455" Properties=species:S:1:pos:R:3:initial_magmoms:R:1 pbc="T T T"
Si      -1.35653346      -1.35700238      -1.35659776       0.00000000
Si      -1.35597960       1.35578249       1.35981123       0.00000000
Si       1.35907470       1.35775358      -1.35622171       0.00000000
Si       1.35928647      -1.35390330       1.36162308       0.00000000
Si       2.69490357       0.01428470       2.72577591       0.00000000
Si      -2.71345788      -0.00045286      -2.71322970       0.00000000
Si       0.00079821      -2.71400427      -2.71353737       0.00000000
Si      -2.71437012       2.71402640       0.00105976       0.00000000
Si       0.00151497       2.71508525      -2.71357156       0.00000000
Si       2.71565703       2.71301642       0.00105976       0.00000000
