10
Lattice="16.28999089631971 0.0 0.0 0.0 16.28999089631971 0.0 0.0 0.0 34.185847837958455" Properties=species:S:1:pos:R:3:initial_magmoms:R:1 pbc="T T T"
Si      -1.30443804       1.38963474      -1.48612801       0.00000000
Si       1.52259372       1.16942652       1.48947822       0.00000000
Si       1.39531995      -1.30777749      -1.50335768       0.00000000
Si      -1.27578393      -1.62177538       1.35177755       0.00000000
Si       2.09737008      -0.91129518       2.60106587       0.00000000
Si       0.46312470      -2.71460537       2.56274352       0.00000000
Si      -1.27953063       1.02592791       3.45984904       0.00000000
Si       2.61594594      -2.80508003      -0.16504937       0.00000000
Si      -2.64332943       2.81414637      -0.07684983       0.00000000
Si       2.81660616       2.64323169      -0.04909090       0.00000000
