10
Lattice="16.28999089631971 0.0 0.0 0.0 16.28999089631971 0.0 0.0 0.0 34.185847837958455" Properties=species:S:1:pos:R:3:initial_magmoms:R:1 pbc="T T T"
Si      -2.24960013       0.60662331      -0.31085209       0.00000000
Si       0.02292003      -1.10174157      -2.08089372       0.00000000
Si       0.82617993      -1.80222786       1.31352357       0.00000000
Si       1.54551375       1.81781739       0.36739551       0.00000000
Si      -3.16159578      -1.54223946       0.24774498       0.00000000
Si       2.32487622      -1.62399897      -2.30221302       0.00000000
Si      -0.36491229      -1.66299723       3.28180904       0.00000000
Si       3.01843926      -1.15090479       1.90148629       0.00000000
Si       2.35053297       2.38337361      -1.74980360       0.00000000
Si      -2.52936459       1.46867382      -2.52866021       0.00000000
