10
Lattice="16.28999089631971 0.0 0.0 0.0 16.28999089631971 0.0 0.0 0.0 34.185847837958455" Properties=species:S:1:pos:R:3:initial_magmoms:R:1 pbc="T T T"
Si       0.83624715      -1.81418635      -1.46072791       0.00000000
Si      -1.93904757       0.94038912      -1.24744228       0.00000000
Si       0.22472055      -0.46418355       2.46155335       0.00000000
Si       1.89159480       1.62829953       0.38476193       0.00000000
Si       3.08131866      -1.03384322      -1.77195604       0.00000000
Si       1.26164421       3.33317835      -1.14437190       0.00000000
Si       1.80287946      -2.29049292       2.37896029       0.00000000
Si       1.38790800      -3.51944540       0.10830083       0.00000000
Si      -2.60509680       2.74030380       0.18176625       0.00000000
Si      -3.58972956      -0.75059433      -1.06605207       0.00000000
