10
Lattice="16.28999089631971 0.0 0.0 0.0 16.28999089631971 0.0 0.0 0.0 34.185847837958455" Properties=species:S:1:pos:R:3:initial_magmoms:R:1 pbc="T T T"
Si       1.34630334       1.36049193      -1.38244227       0.00000000
Si      -1.37158542      -1.35449721      -1.37813485       0.00000000
Si      -1.37611404       1.30443804       1.44117359       0.00000000
Si       1.38559482      -1.46085462       1.43789175       0.00000000
Si      -2.52491742      -0.18735129       2.84816132       0.00000000
Si       2.69004915       2.71163340      -0.00276906       0.00000000
Si      -2.72930805       2.70104490      -0.01035832       0.00000000
Si       2.69794980      -2.73284298      -0.02420359       0.00000000
Si       2.69939961       0.00285075      -2.74088607       0.00000000
Si      -2.73544938      -2.71445157       0.00085465       0.00000000
