10
Lattice="16.28999089631971 0.0 0.0 0.0 16.28999089631971 0.0 0.0 0.0 34.185847837958455" Properties=species:S:1:pos:R:3:initial_magmoms:R:1 pbc="T T T"
Si      -1.35508365       1.35871632       1.35488846       0.00000000
Si      -1.35544203      -1.35829278      -1.35663194       0.00000000
Si       1.35912357       1.35682668      -1.35687124       0.00000000
Si       1.35956340      -1.35956340       1.36374260       0.00000000
Si      -2.69726562       0.00355122       2.70967437       0.00000000
Si      -2.71174743       2.71363707      -0.00027349       0.00000000
Si      -2.71311579      -0.00099369      -2.71398179       0.00000000
Si       0.00229689       2.71332756      -2.71394760       0.00000000
Si       0.00184077       2.69597871       2.73151914       0.00000000
Si       2.71578735       2.71303434       0.00082046       0.00000000
