10
Lattice="16.28999089631971 0.0 0.0 0.0 16.28999089631971 0.0 0.0 0.0 34.185847837958455" Properties=species:S:1:pos:R:3:initial_magmoms:R:1 pbc="T T T"
Si      -1.14880338      -1.49178933       1.40698773       0.00000000
Si       1.37611404      -1.30443804      -1.44117359       0.00000000
Si       0.80405811       1.79168823       1.42025184       0.00000000
Si      -1.35319401       1.39660686      -1.45153191       0.00000000
Si      -2.40411078       0.12574251       2.46456171       0.00000000
Si      -2.69822673      -2.59437798      -0.03104077       0.00000000
Si       2.65598676       2.72367171       0.01945176       0.00000000
Si      -2.73062754       2.71554300      -0.03473284       0.00000000
Si       0.00452862      -2.65893525      -2.81930845       0.00000000
Si       2.76170886      -2.76529266      -0.00328184       0.00000000
