10
Lattice="16.28999089631971 0.0 0.0 0.0 16.28999089631971 0.0 0.0 0.0 34.185847837958455" Properties=species:S:1:pos:R:3:initial_magmoms:R:1 pbc="T T T"
Si       2.24960013      -0.60662331       0.31085209       0.00000000
Si      -0.66033144       1.76484231       1.40726121       0.00000000
Si      -0.27976446       0.86205051      -2.21780812       0.00000000
Si      -0.91199565      -2.14886277       0.55859707       0.00000000
Si       2.27252016      -1.70836488      -1.77004163       0.00000000
Si      -3.21835014      -1.79419689       0.55199919       0.00000000
Si       1.24351344      -0.43932501      -3.49605187       0.00000000
Si      -0.52494525       0.93239073       3.63412859       0.00000000
Si      -2.83141377       2.46031128       0.69872493       0.00000000
Si      -0.31312638      -2.67081066       2.83564929       0.00000000
