10
Lattice="16.28999089631971 0.0 0.0 0.0 16.28999089631971 0.0 0.0 0.0 34.185847837958455" Properties=species:S:1:pos:R:3:initial_magmoms:R:1 pbc="T T T"
Si      -1.35627282      -1.35754344       1.35673450       0.00000000
Si       1.35612621       1.35695700       1.35810194       0.00000000
Si       1.35777150      -1.35785295      -1.35693962       0.00000000
Si      -1.35809730       1.35821133      -1.35700799       0.00000000
Si       0.00039096      -2.71246419       2.71189645       0.00000000
Si       2.71396287      -0.00048870      -2.71480225       0.00000000
Si      -0.00158013       2.71410948      -2.71480225       0.00000000
Si       2.71459818      -2.71435383       0.00013674       0.00000000
Si      -0.00035838      -2.71531494      -2.71387923       0.00000000
Si      -2.71482624      -2.71446786       0.00034186       0.00000000
