10
Lattice="16.28999089631971 0.0 0.0 0.0 16.28999089631971 0.0 0.0 0.0 34.185847837958455" Properties=species:S:1:pos:R:3:initial_magmoms:R:1 pbc="T T T"
Si      -1.35692442      -1.33726239      -1.37663068       0.00000000
Si       1.36109466       1.37217186      -1.37184465       0.00000000
Si      -1.37743353       1.31893614       1.41679907       0.00000000
Si       1.35319401      -1.39660686       1.45153191       0.00000000
Si       2.15725212       0.39508137       2.87178375       0.00000000
Si       0.28038348       2.21236119       2.87335630       0.00000000
Si      -2.69910639      -2.69242749      -0.02184477       0.00000000
Si      -0.00184077      -2.69597871      -2.73151914       0.00000000
Si       2.72930805      -2.70104490       0.01035832       0.00000000
Si      -2.70764235       2.72824920       0.00495695       0.00000000
