10
Lattice="16.28999089631971 0.0 0.0 0.0 16.28999089631971 0.0 0.0 0.0 34.185847837958455" Properties=species:S:1:pos:R:3:initial_magmoms:R:1 pbc="T T T"
Si       1.35285192      -1.35511623      -1.35885403       0.00000000
Si      -1.36228383       1.35998694      -1.35858054       0.00000000
Si       1.36788759       1.35001746       1.36425539       0.00000000
Si      -1.36109466      -1.37217186       1.37184465       0.00000000
Si      -0.07250679       2.52195264       2.78912233       0.00000000
Si       2.71451673      -2.71272483      -0.00023930       0.00000000
Si      -2.71801908      -2.70943425      -0.00478602       0.00000000
Si       2.71122615       0.00319284      -2.71651154       0.00000000
Si      -0.00381186      -2.71132389      -2.71654573       0.00000000
Si       2.71246419       2.71837746      -0.00218790       0.00000000
