10
Lattice="16.28999089631971 0.0 0.0 0.0 16.28999089631971 0.0 0.0 0.0 34.185847837958455" Properties=species:S:1:pos:R:3:initial_magmoms:R:1 pbc="T T T"
Si       0.78548751       0.50075460       2.13733459       0.00000000
Si      -1.85691339      -1.39939245       0.41925547       0.00000000
Si      -0.81546111       2.25683289      -0.35614836       0.00000000
Si       1.90729836      -0.67065930      -1.35003407       0.00000000
Si       3.06786312       1.57845213      -0.58314252       0.00000000
Si       2.14506720       2.35727703       1.52886034       0.00000000
Si      -3.60176787       0.04742019      -0.37327548       0.00000000
Si      -2.38928688       1.84679730      -2.02219659       0.00000000
Si      -2.09670219       2.52363051       1.64765623       0.00000000
Si      -1.05699294       1.28710548       3.33971990       0.00000000
