10
Lattice="16.28999089631971 0.0 0.0 0.0 16.28999089631971 0.0 0.0 0.0 34.185847837958455" Properties=species:S:1:pos:R:3:initial_magmoms:R:1 pbc="T T T"
Si      -2.11033692      -0.04559571      -0.98776644       0.00000000
Si       0.62672517      -2.24028225       0.16477588       0.00000000
Si      -0.91968453       0.23630274       2.14338549       0.00000000
Si       1.29091734       1.88436204      -0.81858058       0.00000000
Si      -3.08884464       1.71675423       0.46044944       0.00000000
Si      -1.58144949       2.48135796       2.12899324       0.00000000
Si       0.84934431       0.17194095       3.57970469       0.00000000
Si       2.61869895       1.21870377       2.45885267       0.00000000
Si       3.00299634       0.92462040      -2.14041132       0.00000000
Si       2.26307196      -2.49649137       1.80757771       0.00000000
