10
Lattice="16.28999089631971 0.0 0.0 0.0 16.28999089631971 0.0 0.0 0.0 34.185847837958455" Properties=species:S:1:pos:R:3:initial_magmoms:R:1 pbc="T T T"
Si      -0.65099727      -1.34731332      -1.78457063       0.00000000
Si      -1.89553698       1.20050784       0.75010629       0.00000000
Si       1.15759998      -1.59154929       1.32948837       0.00000000
Si       1.37441988       1.92057471      -0.38746262       0.00000000
Si      -0.94623723       2.43709803       2.53833481       0.00000000
Si       2.00145456      -0.41917428       3.19442996       0.00000000
Si       2.86967898      -2.55129093       0.00765763       0.00000000
Si       0.60375627       3.61709499       1.15390975       0.00000000
Si       0.59474790       2.88906408      -2.47744978       0.00000000
Si       1.19148318      -2.13366420      -2.98695594       0.00000000
