10
Lattice="16.28999089631971 0.0 0.0 0.0 16.28999089631971 0.0 0.0 0.0 34.185847837958455" Properties=species:S:1:pos:R:3:initial_magmoms:R:1 pbc="T T T"
Si      -1.33561710      -1.36818800      -1.36415283       0.00000000
Si       1.22062599      -1.49730254       1.33830832       0.00000000
Si       1.38021912       1.34493498      -1.36993025       0.00000000
Si      -1.39531995       1.30777749       1.50335768       0.00000000
Si      -2.69975799       2.69741223       0.01722968       0.00000000
Si       2.73364119       2.67902082      -0.00782856       0.00000000
Si      -2.69490357      -0.01428470      -2.72577591       0.00000000
Si       0.02075346       2.69873172      -2.72471615       0.00000000
Si       2.71982727      -2.72459114      -0.00909344       0.00000000
Si      -2.69454519      -2.75132303       0.01456318       0.00000000
