10
Lattice="16.28999089631971 0.0 0.0 0.0 16.28999089631971 0.0 0.0 0.0 34.185847837958455" Properties=species:S:1:pos:R:3:initial_magmoms:R:1 pbc="T T T"
Si      -1.41998301      -1.15396146      -1.49176868       0.00000000
Si       0.76989798      -1.97285976       1.16519109       0.00000000
Si      -1.93855887       0.73982338       1.27434656       0.00000000
Si       1.30272759       1.50126685      -1.44701938       0.00000000
Si       2.14363109       0.80568385       2.60496306       0.00000000
Si       0.85253715       2.67540118       2.08209023       0.00000000
Si       0.07921827      -2.38125006      -2.83917044       0.00000000
Si       1.16440920      -1.19224296       3.31261051       0.00000000
Si      -2.55650373      -2.73234843      -0.02013548       0.00000000
Si      -2.51333523       2.82054508       0.16275891       0.00000000
