10
Lattice="16.28999089631971 0.0 0.0 0.0 16.28999089631971 0.0 0.0 0.0 34.185847837958455" Properties=species:S:1:pos:R:3:initial_magmoms:R:1 pbc="T T T"
Si       0.92592360       0.84903154       1.99877927       0.00000000
Si       1.88465526      -0.32901143      -1.43013156       0.00000000
Si      -1.59729966      -1.70266568       0.54157250       0.00000000
Si      -1.26425061       1.74898074      -1.10492141       0.00000000
Si      -3.03174819      -1.79343356      -1.34302597       0.00000000
Si      -2.96386776      -0.81067415       2.22782458       0.00000000
Si       1.55851317      -0.90634532       3.37667482       0.00000000
Si      -0.57068757       2.22207492       3.09877791       0.00000000
Si      -0.01335780       3.77237793      -0.95744358       0.00000000
Si       2.86387715       1.66891539      -2.13777900       0.00000000
