10
Lattice="16.28999089631971 0.0 0.0 0.0 16.28999089631971 0.0 0.0 0.0 34.185847837958455" Properties=species:S:1:pos:R:3:initial_magmoms:R:1 pbc="T T T"
Si       1.58614101      -0.23374521      -1.70320826       0.00000000
Si      -1.22523606       1.98397539       0.40493159       0.00000000
Si      -1.25089281      -2.02339719      -0.14747783       0.00000000
Si       1.45968174       0.24915555       1.86894135       0.00000000
Si      -1.20495501      -2.16932301      -2.51095193       0.00000000
Si      -2.03025528       1.41841917       2.52213071       0.00000000
Si       2.87723495      -2.10346254      -1.18033543       0.00000000
Si      -0.03818376       0.78107292       3.68752691       0.00000000
Si       2.88762146       2.08769382       1.32118120       0.00000000
Si      -3.55284900      -1.50113979       0.07384147       0.00000000
