10
Lattice="16.28999089631971 0.0 0.0 0.0 16.28999089631971 0.0 0.0 0.0 34.185847837958455" Properties=species:S:1:pos:R:3:initial_magmoms:R:1 pbc="T T T"
Si       1.35675073       1.35490446      -1.35642683       0.00000000
Si       1.35732383      -1.35741312       1.35707636       0.00000000
Si      -1.35780408       1.35702216       1.35724729       0.00000000
Si      -1.35806472      -1.35858600      -1.35622171       0.00000000
Si       2.71466075      -0.00092853       2.71336645       0.00000000
Si      -0.00138465       2.71363707       2.71500737       0.00000000
Si       0.00400734      -2.71454116      -2.71425528       0.00000000
Si      -2.71469592       2.71422351       0.00027349       0.00000000
Si       2.71465912      -2.71484416      -0.00027349       0.00000000
Si       2.71528466       0.00351864      -2.71435784       0.00000000
