10
Lattice="16.28999089631971 0.0 0.0 0.0 16.28999089631971 0.0 0.0 0.0 34.185847837958455" Properties=species:S:1:pos:R:3:initial_magmoms:R:1 pbc="T T T"
Si       1.35641943       1.35661491       1.35776008       0.00000000
Si      -1.35689184       1.35720135      -1.35697380       0.00000000
Si       1.35780408      -1.35702216      -1.35724729       0.00000000
Si      -1.35791811      -1.35936792       1.35755496       0.00000000
Si       0.00154755      -2.71316466       2.71234087       0.00000000
Si       2.71455481      -0.00211770      -2.71367412       0.00000000
Si      -0.00026064      -2.71560816      -2.71346900       0.00000000
Si      -2.71450044      -2.71463076       0.00027349       0.00000000
Si       2.71512791      -2.71443528      -0.00017093       0.00000000
Si       0.00332316       2.71425609       2.71620387       0.00000000
