10
Lattice="16.28999089631971 0.0 0.0 0.0 16.28999089631971 0.0 0.0 0.0 34.185847837958455" Properties=species:S:1:pos:R:3:initial_magmoms:R:1 pbc="T T T"
Si      -1.28019852       1.39512447      -1.47857293       0.00000000
Si       1.41017643      -1.31647635      -1.46339441       0.00000000
Si       1.71605376       1.10809467       1.31564309       0.00000000
Si      -1.85192865      -0.93198348       1.40080008       0.00000000
Si      -2.72059290       2.56705965      -0.05370600       0.00000000
Si       0.50023332       2.49689862       2.79671159       0.00000000
Si       2.69871543       2.67558363      -0.17219421       0.00000000
Si      -2.65598676      -2.72367171      -0.01945176       0.00000000
Si      -2.64808611       0.04510701      -2.84282832       0.00000000
Si       0.06643062      -2.66761782      -2.84306762       0.00000000
