10
Lattice="16.28999089631971 0.0 0.0 0.0 16.28999089631971 0.0 0.0 0.0 34.185847837958455" Properties=species:S:1:pos:R:3:initial_magmoms:R:1 pbc="T T T"
Si       1.97649081      -0.01866834       1.20248787       0.00000000
Si      -1.63940931       1.16682012       1.16095204       0.00000000
Si       0.36997848       0.44453781      -2.27920593       0.00000000
Si      -0.88159851      -2.19265029      -0.16956190       0.00000000
Si      -2.77610922       1.67720211      -0.87785888       0.00000000
Si       1.19284569      -3.34120932       0.22330208       0.00000000
Si       3.07759544      -1.79077599       0.16009241       0.00000000
Si      -1.85331330       0.89837721      -2.98986174       0.00000000
Si       2.52986048       2.30620788       1.28894393       0.00000000
Si      -3.00579822      -1.93062564       0.88541395       0.00000000
