10
Lattice="16.28999089631971 0.0 0.0 0.0 16.28999089631971 0.0 0.0 0.0 34.185847837958455" Properties=species:S:1:pos:R:3:initial_magmoms:R:1 pbc="T T T"
Si      -0.67913010      -0.44419572       2.20488586       0.00000000
Si       1.54980032       1.80771759       0.45419343       0.00000000
Si      -1.43840700       1.16620110      -1.61391478       0.00000000
Si       0.72571950      -2.31673122      -0.43111797       0.00000000
Si       3.05015493      -1.51672932      -0.25331727       0.00000000
Si       3.17012264       0.85633272      -0.96407563       0.00000000
Si      -1.82270439       1.46028447       2.98534920       0.00000000
Si      -3.15048600       2.12594274      -0.29208405       0.00000000
Si      -2.17833138      -2.25491067       2.33407425       0.00000000
Si      -1.98671211      -0.16747749      -3.45372977       0.00000000
