10
Lattice="16.28999089631971 0.0 0.0 0.0 16.28999089631971 0.0 0.0 0.0 34.185847837958455" Properties=species:S:1:pos:R:3:initial_magmoms:R:1 pbc="T T T"
Si       0.84321927      -1.20368439      -1.85277143       0.00000000
Si      -0.70403751       1.96659396      -1.12348433       0.00000000
Si       1.72878832       0.76743819       1.69739667       0.00000000
Si      -1.55657466      -2.13504885       0.19195364       0.00000000
Si      -1.78471611      -1.03488741       2.24425366       0.00000000
Si       0.17290206      -0.16423578       3.33634032       0.00000000
Si      -1.85469795       0.99290808      -2.88819297       0.00000000
Si       3.69180989      -0.16368192       0.32264621       0.00000000
Si       2.98897295      -0.26419122      -2.19996310       0.00000000
Si       1.88788624      -3.14628318      -1.05172820       0.00000000
