10
Lattice="16.28999089631971 0.0 0.0 0.0 16.28999089631971 0.0 0.0 0.0 34.185847837958455" Properties=species:S:1:pos:R:3:initial_magmoms:R:1 pbc="T T T"
Si      -1.17581220       1.56546900       1.32083250       0.00000000
Si       1.55400084      -1.19171124       1.32590227       0.00000000
Si       1.84715472       1.04094729      -1.21397671       0.00000000
Si      -1.60624287      -0.82197711      -1.67218258       0.00000000
Si      -0.41751270       0.71019513      -3.49938298       0.00000000
Si      -2.52148023      -2.58883938      -0.06988959       0.00000000
Si       0.48084822       2.59513125      -2.50136078       0.00000000
Si      -2.50668891       0.20290824       2.69415399       0.00000000
Si       0.21004326      -2.51545293       2.70334999       0.00000000
Si       2.80789331      -2.66898618      -0.16745263       0.00000000
