10
Lattice="16.28999089631971 0.0 0.0 0.0 16.28999089631971 0.0 0.0 0.0 34.185847837958455" Properties=species:S:1:pos:R:3:initial_magmoms:R:1 pbc="T T T"
Si       1.13298579      -0.64091376      -1.95857669       0.00000000
Si      -0.25229952       2.32929081       0.31495439       0.00000000
Si       1.15012287      -0.82754829       1.95358555       0.00000000
Si      -2.01741876      -1.37714031      -0.18750948       0.00000000
Si      -1.67679486       2.28281544       2.21626975       0.00000000
Si       1.83901298      -2.86774047      -1.30617360       0.00000000
Si       2.72738487      -2.29842126       0.94062413       0.00000000
Si      -0.29535399       0.22830435      -3.72034534       0.00000000
Si      -0.38283129      -2.24148771       2.98969081       0.00000000
Si      -1.53349173      -3.21517359       1.22498217       0.00000000
