10
Lattice="16.28999089631971 0.0 0.0 0.0 16.28999089631971 0.0 0.0 0.0 34.185847837958455" Properties=species:S:1:pos:R:3:initial_magmoms:R:1 pbc="T T T"
Si      -0.08713847      -1.43462772      -1.84726751       0.00000000
Si      -1.00150335      -1.52640558       1.48072664       0.00000000
Si      -2.07444420       1.14855903      -0.39286398       0.00000000
Si       1.88474974       1.55043333      -0.06320967       0.00000000
Si       0.78364511       3.32254098       0.97918579       0.00000000
Si      -1.19284569       3.34120932      -0.22330208       0.00000000
Si      -0.88375923      -0.13071096      -3.63795740       0.00000000
Si      -1.51507818      -3.27316599      -1.29950736       0.00000000
Si      -2.86125120       0.40501827      -2.53495041       0.00000000
Si       2.38876234       1.96001280      -2.34388560       0.00000000
