10
Lattice="16.28999089631971 0.0 0.0 0.0 16.28999089631971 0.0 0.0 0.0 34.185847837958455" Properties=species:S:1:pos:R:3:initial_magmoms:R:1 pbc="T T T"
Si      -0.18048831       1.59742998       1.66215104       0.00000000
Si       2.17372783       0.92268189      -0.21379841       0.00000000
Si      -1.37132545       0.14812497      -1.94503909       0.00000000
Si      -0.31813718      -2.21817672       0.83642561       0.00000000
Si      -2.66359486      -0.95148261       1.39437314       0.00000000
Si       2.75259298       0.60043311       2.05511758       0.00000000
Si      -3.47341963      -0.19834704      -0.76583179       0.00000000
Si      -1.93256482       0.73225179       2.97205090       0.00000000
Si       2.35661566      -1.67765823       2.40107855       0.00000000
Si       3.26795971      -0.28968507      -1.90476813       0.00000000
