10
Lattice="16.28999089631971 0.0 0.0 0.0 16.28999089631971 0.0 0.0 0.0 34.185847837958455" Properties=species:S:1:pos:R:3:initial_magmoms:R:1 pbc="T T T"
Si      -1.35139396      -1.36397799       1.37040201       0.00000000
Si       1.36425492       1.35446463       1.37761523       0.00000000
Si       1.38748446      -1.41068142      -1.31201939       0.00000000
Si      -1.46654472       1.19781999      -1.49117042       0.00000000
Si       2.70798444       2.68703550       0.00840630       0.00000000
Si      -2.72043719       2.67509493       0.00218448       0.00000000
Si      -2.68908804      -2.74268214       0.00103241       0.00000000
Si       0.00506619       2.70689301       2.73175160       0.00000000
Si      -2.71220111      -0.00418653       2.73103370       0.00000000
Si       2.73111624      -2.71518462       0.03347480       0.00000000
