10
Lattice="16.28999089631971 0.0 0.0 0.0 16.28999089631971 0.0 0.0 0.0 34.185847837958455" Properties=species:S:1:pos:R:3:initial_magmoms:R:1 pbc="T T T"
Si       1.35612621      -1.35861858      -1.35834124       0.00000000
Si      -1.35998368       1.35387819      -1.35967449       0.00000000
Si       1.35125550       1.35066906       1.37902369       0.00000000
Si      -1.35553163      -1.36651923       1.35974286       0.00000000
Si      -2.71206413       2.71074688       0.00249557       0.00000000
Si       2.71410948       2.71427238       0.00064953       0.00000000
Si      -2.71255283      -2.71663443       0.00123069       0.00000000
Si      -0.00070047       2.71363993      -2.71575946       0.00000000
Si       2.71435383      -0.00081450      -2.71634062       0.00000000
Si      -2.71564560      -0.00112401      -2.71596457       0.00000000
