10
Lattice="16.28999089631971 0.0 0.0 0.0 16.28999089631971 0.0 0.0 0.0 34.185847837958455" Properties=species:S:1:pos:R:3:initial_magmoms:R:1 pbc="T T T"
Si       1.03112116       0.61470056      -2.02404262       0.00000000
Si       0.45258833      -2.27423061       0.47826028       0.00000000
Si       0.01325843       1.54206746       1.79790311       0.00000000
Si      -1.68319098      -0.68025411      -1.57737009       0.00000000
Si       0.14555604      -1.37523438      -2.97553786       0.00000000
Si      -1.23392907       3.28552100       0.94701689       0.00000000
Si       1.05671275      -3.12178302      -1.67739793       0.00000000
Si      -1.64846070      -3.15659475       1.17459220       0.00000000
Si       2.25832831       2.28078638       2.09381598       0.00000000
Si       3.28648795       1.00453492      -1.71520750       0.00000000
