10
Lattice="16.28999089631971 0.0 0.0 0.0 16.28999089631971 0.0 0.0 0.0 34.185847837958455" Properties=species:S:1:pos:R:3:initial_magmoms:R:1 pbc="T T T"
Si       2.31404337       0.25042617      -0.24354012       0.00000000
Si      -0.91115671       1.74654864      -1.29813993       0.00000000
Si      -0.55336967      -2.32487622      -0.08645606       0.00000000
Si      -0.60412442       0.84755241       2.15565821       0.00000000
Si      -2.52986048      -2.30620788      -1.28894393       0.00000000
Si      -2.73990374       2.44152891       0.10002785       0.00000000
Si       1.20487356       0.08044002       3.47605314       0.00000000
Si      -1.05671275       3.12178302       1.67739793       0.00000000
Si       3.22721190      -1.47696543       1.07415413       0.00000000
Si      -0.02559159       3.73648358      -0.34664469       0.00000000
