10
Lattice="10.86 0.0 0.0 0.0 10.86 0.0 0.0 0.0 10.86" Properties=species:S:1:pos:R:3:initial_magmoms:R:1 pbc="T T T"
Si      -1.18408752      -1.19924808       1.42247538       0.00000000
Si      -1.18408752       1.51575192      -1.29252462       0.00000000
Si       1.53091248      -1.19924808      -1.29252462       0.00000000
Si      -2.54158752      -2.55674808       0.06497538       0.00000000
Si      -2.54158752       0.15825192      -2.65002462       0.00000000
Si       0.17341248      -2.55674808      -2.65002462       0.00000000
Si      -2.54158752       0.15825192       2.77997538       0.00000000
Si       0.17341248      -2.55674808       2.77997538       0.00000000
Si      -2.54158752       2.87325192       0.06497538       0.00000000
Si       2.88841248      -2.55674808       0.06497538       0.00000000
