10
Lattice="10.86 0.0 0.0 0.0 10.86 0.0 0.0 0.0 10.86" Properties=species:S:1:pos:R:3:initial_magmoms:R:1 pbc="T T T"
Si      -1.21911102      -1.47496176       1.43772282       0.00000000
Si       1.49588898       1.24003824       1.43772282       0.00000000
Si       1.49588898      -1.47496176      -1.27727718       0.00000000
Si       0.18097104       2.53073838      -2.56810764       0.00000000
Si      -2.58056406       2.54824470       0.02941974       0.00000000
Si      -2.57661102      -0.11746176       2.79522282       0.00000000
Si      -2.51662038      -2.85848232       0.08795514       0.00000000
Si       0.13838898       2.59753824       2.79522282       0.00000000
Si       2.85338898       2.59753824       0.08022282       0.00000000
Si       2.85338898      -0.11746176      -2.63477718       0.00000000
