10
Lattice="10.86 0.0 0.0 0.0 10.86 0.0 0.0 0.0 10.86" Properties=species:S:1:pos:R:3:initial_magmoms:R:1 pbc="T T T"
Si       1.20157212      -1.16171592      -1.46190804       0.00000000
Si       1.20157212       1.55328408       1.25309196       0.00000000
Si      -1.97382672      -0.84005358       1.12279368       0.00000000
Si      -1.51342788       1.55328408      -1.46190804       0.00000000
Si       2.69554974       0.51068064       2.31915300       0.00000000
Si       2.63873022      -2.58642846      -0.04480836       0.00000000
Si      -2.95981698      -2.28598656      -0.15444006       0.00000000
Si      -0.15592788      -2.51921592      -2.81940804       0.00000000
Si       2.55907212       0.19578408      -2.81940804       0.00000000
Si       2.55907212       2.91078408      -0.10440804       0.00000000
