10
Lattice="10.86 0.0 0.0 0.0 10.86 0.0 0.0 0.0 10.86" Properties=species:S:1:pos:R:3:initial_magmoms:R:1 pbc="T T T"
Si      -0.96559518       1.27474680      -1.33386864       0.00000000
Si      -0.96559518      -1.44025320       1.38113136       0.00000000
Si       1.28900598      -1.11859086      -1.46416692       0.00000000
Si       1.74940482       1.27474680       1.38113136       0.00000000
Si      -2.32309518       2.63224680       0.02363136       0.00000000
Si      -2.32309518      -0.08275320      -2.69136864       0.00000000
Si      -2.32309518      -0.08275320       2.73863136       0.00000000
Si      -2.32309518      -2.79775320       0.02363136       0.00000000
Si       0.22884192      -2.84824134       2.35540368       0.00000000
Si       0.30301572      -2.56452384      -2.74140066       0.00000000
