10
Lattice="10.86 0.0 0.0 0.0 10.86 0.0 0.0 0.0 10.86" Properties=species:S:1:pos:R:3:initial_magmoms:R:1 pbc="T T T"
Si       1.27122816       1.21463670       1.36783872       0.00000000
Si      -1.44377184       1.21463670      -1.34716128       0.00000000
Si      -1.44377184      -1.50036330       1.36783872       0.00000000
Si       2.62872816       2.57213670       0.01033872       0.00000000
Si      -0.08627184       2.57213670      -2.70466128       0.00000000
Si      -0.08627184       2.57213670       2.72533872       0.00000000
Si       2.62872816      -0.14286330       2.72533872       0.00000000
Si      -2.80127184       2.57213670       0.01033872       0.00000000
Si       2.65618224      -2.76265368      -0.03640272       0.00000000
Si      -2.80127184      -0.14286330       2.72533872       0.00000000
