10
Lattice="10.86 0.0 0.0 0.0 10.86 0.0 0.0 0.0 10.86" Properties=species:S:1:pos:R:3:initial_magmoms:R:1 pbc="T T T"
Si       1.33351026      -1.24480578      -1.37689596       0.00000000
Si      -1.38148974      -1.24480578       1.33810404       0.00000000
Si      -1.38148974       1.47019422      -1.37689596       0.00000000
Si       2.69101026      -2.60230578      -0.01939596       0.00000000
Si      -0.02398974      -2.60230578       2.69560404       0.00000000
Si      -0.02398974      -2.60230578      -2.73439596       0.00000000
Si      -2.73898974      -2.60230578      -0.01939596       0.00000000
Si       2.69101026       0.11269422      -2.73439596       0.00000000
Si       2.74785150       0.11601738       2.69122746       0.00000000
Si      -2.73898974       0.11269422      -2.73439596       0.00000000
