10
Lattice="10.86 0.0 0.0 0.0 10.86 0.0 0.0 0.0 10.86" Properties=species:S:1:pos:R:3:initial_magmoms:R:1 pbc="T T T"
Si       1.41570960       1.14403584      -1.23295752       0.00000000
Si      -1.31256132       1.28421672       1.44682350       0.00000000
Si      -1.29949674      -1.47752472      -1.39216512       0.00000000
Si      -2.62995534       2.62299408      -0.04992342       0.00000000
Si       0.08504466       2.62299408       2.66507658       0.00000000
Si      -2.62995534      -0.09200592       2.66507658       0.00000000
Si       0.08504466       2.62299408      -2.76492342       0.00000000
Si      -2.62995534      -0.09200592      -2.76492342       0.00000000
Si       2.80004466       2.62299408      -0.04992342       0.00000000
Si      -2.62995534      -2.80700592      -0.04992342       0.00000000
