10
Lattice="16.28999089631971 0.0 0.0 0.0 16.28999089631971 0.0 0.0 0.0 34.376317263855086" Properties=species:S:1:pos:R:3:initial_magmoms:R:1 pbc="T T T"
Si      -1.63059805      -0.74925855       1.62080989       0.00000000
Si      -1.89782735       1.36113443      -0.64837208       0.00000000
Si       0.47296386      -2.35651140      -0.47982490       0.00000000
Si       1.87235631       1.46343074      -0.67539188       0.00000000
Si       0.00241092      -0.08439849       3.48606991       0.00000000
Si      -1.09439641       2.20235003      -2.70122377       0.00000000
Si       2.18520576      -2.71120986       1.15081662       0.00000000
Si       2.60203428       0.56374803       2.65701580       0.00000000
Si       1.15738821      -2.38237992      -2.69957370       0.00000000
Si      -1.77734488       3.23212238       0.89557232       0.00000000
