10
Lattice="16.28999089631971 0.0 0.0 0.0 16.28999089631971 0.0 0.0 0.0 34.376317263855086" Properties=species:S:1:pos:R:3:initial_magmoms:R:1 pbc="T T T"
Si      -1.16144442      -0.87783878      -1.72562334       0.00000000
Si       2.30215167      -0.35890128      -0.02131333       0.00000000
Si      -0.71048835      -1.40875594       1.78217241       0.00000000
Si      -0.94302810       2.23896276       0.30137734       0.00000000
Si      -0.66327993       0.17558991       3.48593240       0.00000000
Si      -3.14555013       0.22410153      -1.78629757       0.00000000
Si      -1.85868900       1.98306315       2.50630994       0.00000000
Si       3.21297444       1.79602137      -0.57759121       0.00000000
Si      -2.96380260      -1.79829220       1.46852272       0.00000000
Si       2.89676925      -0.87950850       2.26179106       0.00000000
