10
Lattice="16.28999089631971 0.0 0.0 0.0 16.28999089631971 0.0 0.0 0.0 34.376317263855086" Properties=species:S:1:pos:R:3:initial_magmoms:R:1 pbc="T T T"
Si      -0.04720842      -1.58434585      -1.70375999       0.00000000
Si      -1.19540907       1.80747324      -0.97962246       0.00000000
Si      -1.08053199      -0.30766923       2.10249112       0.00000000
Si       2.34641160       0.42293727       0.17511306       0.00000000
Si      -0.45936171       1.94430924       2.64085892       0.00000000
Si       0.66327993      -0.17558991      -3.48593240       0.00000000
Si      -0.96707214       3.40912233       0.73211284       0.00000000
Si      -2.30052267      -1.97388211      -2.01740968       0.00000000
Si       0.97800273      -3.56811992      -0.88024047       0.00000000
Si      -0.27974817       2.06337285      -3.18455506       0.00000000
