10
Lattice="16.28999089631971 0.0 0.0 0.0 16.28999089631971 0.0 0.0 0.0 34.376317263855086" Properties=species:S:1:pos:R:3:initial_magmoms:R:1 pbc="T T T"
Si      -1.35638685      -1.35773892      -1.35786529       0.00000000
Si      -1.35788553       1.35738054       1.35734965       0.00000000
Si       1.35778779      -1.35785295       1.35731527       0.00000000
Si       1.35690813       1.35886293      -1.35841531       0.00000000
Si      -0.00032580       2.71301805       2.71421802       0.00000000
Si       0.00034209       2.71106325      -2.71628060       0.00000000
Si       2.71357191      -0.00118917       2.71480242       0.00000000
Si      -2.71504615      -2.71474805      -0.00013751       0.00000000
Si      -2.71626790       0.00032580       2.71377113       0.00000000
Si      -0.00158013      -2.71606265       2.71397739       0.00000000
