10
Lattice="16.28999089631971 0.0 0.0 0.0 16.28999089631971 0.0 0.0 0.0 34.376317263855086" Properties=species:S:1:pos:R:3:initial_magmoms:R:1 pbc="T T T"
Si      -1.35578412      -1.35666378      -1.35748715       0.00000000
Si       1.35897696       1.35839052      -1.35728089       0.00000000
Si      -1.35640314       1.36365219       1.35817468       0.00000000
Si       1.36057338      -1.35790182       1.36051227       0.00000000
Si       2.71275741       0.00495216       2.70603645       0.00000000
Si      -2.71389771       2.71420722      -0.00058440       0.00000000
Si      -2.71357191       0.00118917      -2.71480242       0.00000000
Si       0.00169416      -2.71393844      -2.71511181       0.00000000
Si       2.71415835      -2.71513575       0.00000000       0.00000000
Si      -2.71515204      -2.71487348      -0.00082503       0.00000000
