10
Lattice="16.28999089631971 0.0 0.0 0.0 16.28999089631971 0.0 0.0 0.0 34.376317263855086" Properties=species:S:1:pos:R:3:initial_magmoms:R:1 pbc="T T T"
Si       0.66414330      -1.75878243      -1.41001419       0.00000000
Si       0.13660794      -0.83000808       2.22803350       0.00000000
Si      -2.17060992       0.69349788      -0.71148704       0.00000000
Si       1.49713245       1.88139726      -0.07494041       0.00000000
Si      -0.37328535       1.15391844       3.50380810       0.00000000
Si       0.40120641      -0.86827329      -3.62543157       0.00000000
Si      -3.49185924      -1.31584104      -0.53104565       0.00000000
Si      -2.86430328       2.40155325       0.78608369       0.00000000
Si       3.66995781       1.19835756       0.61664272       0.00000000
Si       2.91116961      -2.37211722      -1.09571135       0.00000000
