10
Lattice="16.28999089631971 0.0 0.0 0.0 16.28999089631971 0.0 0.0 0.0 34.376317263855086" Properties=species:S:1:pos:R:3:initial_magmoms:R:1 pbc="T T T"
Si       2.22863490      -0.59316777       0.41880691       0.00000000
Si      -1.57726296      -1.71717777       0.30062106       0.00000000
Si      -0.26238303       0.65446704      -2.29891750       0.00000000
Si      -0.67403133       1.38947184       1.86945393       0.00000000
Si      -3.38791275      -0.13258431       0.69502077       0.00000000
Si      -1.26097632       3.30317217       0.60450788       0.00000000
Si       3.30035400       1.57898970       0.48865962       0.00000000
Si       2.30404131      -1.33734384       2.59713222       0.00000000
Si       1.28531358       2.44623672      -2.49362507       0.00000000
Si      -2.49170211       0.21830229       2.88599658       0.00000000
