10
Lattice="16.28999089631971 0.0 0.0 0.0 16.28999089631971 0.0 0.0 0.0 34.376317263855086" Properties=species:S:1:pos:R:3:initial_magmoms:R:1 pbc="T T T"
Si       0.07540641      -0.74417607       2.17832531       0.00000000
Si      -2.22863490       0.59316777      -0.41880691       0.00000000
Si       0.50989329      -1.98392652      -1.27577460       0.00000000
Si       1.07171910       2.17215747       0.06985272       0.00000000
Si       1.23290865       2.55924045      -2.22624593       0.00000000
Si       2.27800989      -1.33201701       2.51682910       0.00000000
Si       0.37328535      -1.15391844      -3.50380810       0.00000000
Si       0.26153595       1.13748183       3.58201426       0.00000000
Si      -2.90266623       1.98263961       1.45064702       0.00000000
Si      -2.49101793       1.24763481      -2.71772441       0.00000000
