10
Lattice="16.28999089631971 0.0 0.0 0.0 16.28999089631971 0.0 0.0 0.0 34.376317263855086" Properties=species:S:1:pos:R:3:initial_magmoms:R:1 pbc="T T T"
Si      -0.07540641       0.74417607      -2.17832531       0.00000000
Si       2.20260348      -0.58784094       0.33850379       0.00000000
Si       0.18612954       1.88165790       1.40368895       0.00000000
Si      -1.06821675      -2.07961398       0.34950421       0.00000000
Si       0.25034472       0.70452621       3.45244985       0.00000000
Si       2.27157534      -0.40824369       2.72243397       0.00000000
Si       0.43448688      -1.23975045      -3.45409991       0.00000000
Si       2.52038880      -2.64738564      -0.66435708       0.00000000
Si      -2.30404131       1.33734384      -2.59713222       0.00000000
Si       0.99631269       2.91633354      -2.10847260       0.00000000
