10
Lattice="16.28999089631971 0.0 0.0 0.0 16.28999089631971 0.0 0.0 0.0 34.376317263855086" Properties=species:S:1:pos:R:3:initial_magmoms:R:1 pbc="T T T"
Si      -0.85905056      -2.06779463       0.72730015       0.00000000
Si      -1.43258888       1.79139501      -0.66281014       0.00000000
Si       0.95734538       0.60575994      -2.11823548       0.00000000
Si       1.36338503       0.68960457       1.86900704       0.00000000
Si      -2.05349852      -0.74935955      -2.60362935       0.00000000
Si      -1.48582460      -2.83133951      -1.43431826       0.00000000
Si      -2.73792287       2.05097616       1.24579843       0.00000000
Si       1.40523404       2.93149953      -1.78282556       0.00000000
Si      -3.42272189       0.61972047      -1.28938763       0.00000000
Si       0.99131655      -3.19946093       1.80259196       0.00000000
