10
Lattice="16.28999089631971 0.0 0.0 0.0 16.28999089631971 0.0 0.0 0.0 34.376317263855086" Properties=species:S:1:pos:R:3:initial_magmoms:R:1 pbc="T T T"
Si      -2.16023319       0.81163296      -0.44936747       0.00000000
Si      -0.02971296      -0.14727789       2.38595839       0.00000000
Si       0.71096076      -1.90299780      -1.33624258       0.00000000
Si       1.90581597       1.58478894      -0.50509151       0.00000000
Si       1.76876820       2.89439091       1.49468311       0.00000000
Si       0.58725450      -1.19935125      -3.60803715       0.00000000
Si       2.62888020      -2.86705629      -0.10931675       0.00000000
Si      -2.82665709       0.25790328      -2.66230975       0.00000000
Si      -0.95428449      -3.60496071      -1.15339484       0.00000000
Si      -2.48376888       3.11471316       0.20574237       0.00000000
