10
Lattice="16.28999089631971 0.0 0.0 0.0 16.28999089631971 0.0 0.0 0.0 34.376317263855086" Properties=species:S:1:pos:R:3:initial_magmoms:R:1 pbc="T T T"
Si      -1.35615879       1.35702216       1.36329675       0.00000000
Si       1.36032903      -1.36005210       1.36226546       0.00000000
Si       1.35045729       1.37138994      -1.37642851       0.00000000
Si      -1.35462753      -1.36199061      -1.38197342       0.00000000
Si       2.65512339      -0.04976595      -2.73276062       0.00000000
Si      -2.71476108       2.71427238       0.00594711       0.00000000
Si      -2.71280628      -2.72041371       0.00402203       0.00000000
Si      -2.71352304      -0.00112401       2.72016513       0.00000000
Si       0.00140094       2.71391400       2.72030263       0.00000000
Si       2.71699281       2.71814940       0.00340326       0.00000000
