10
Lattice="16.28999089631971 0.0 0.0 0.0 16.28999089631971 0.0 0.0 0.0 34.376317263855086" Properties=species:S:1:pos:R:3:initial_magmoms:R:1 pbc="T T T"
Si      -1.69811847       1.54857627      -0.26019449       0.00000000
Si       0.58327974      -1.32564762      -1.82393966       0.00000000
Si      -0.47840472      -1.38031686       1.85051257       0.00000000
Si       2.08984410       1.16419743       0.19611700       0.00000000
Si      -3.11901372       0.26238303      -1.65247049       0.00000000
Si       1.69782525      -1.86048090       2.53669862       0.00000000
Si      -2.33888562       1.87642881       2.00015276       0.00000000
Si      -1.42563564       0.14864625       3.31796962       0.00000000
Si       3.12986286      -0.07389144       1.88726087       0.00000000
Si       2.32059195      -2.74849767      -1.02864312       0.00000000
