10
Lattice="16.28999089631971 0.0 0.0 0.0 16.28999089631971 0.0 0.0 0.0 34.376317263855086" Properties=species:S:1:pos:R:3:initial_magmoms:R:1 pbc="T T T"
Si       1.58905692       0.73893069       1.51579018       0.00000000
Si      -0.58694499       1.91370033      -1.26494605       0.00000000
Si      -1.81767078      -1.17116955       1.01654265       0.00000000
Si       0.67403133      -1.38947184      -1.86945393       0.00000000
Si      -2.59472007       0.84999591      -1.88540455       0.00000000
Si      -2.71388142      -1.52205615      -1.17443316       0.00000000
Si       2.99402055       1.95038541       0.06803077       0.00000000
Si      -0.90323163      -3.10664961      -1.56883287       0.00000000
Si       2.90266623      -1.98263961      -1.45064702       0.00000000
Si      -2.72296798       0.17948322       2.74587863       0.00000000
