10
Lattice="16.28999089631971 0.0 0.0 0.0 16.28999089631971 0.0 0.0 0.0 34.376317263855086" Properties=species:S:1:pos:R:3:initial_magmoms:R:1 pbc="T T T"
Si      -0.06887412       1.98833201      -1.33077674       0.00000000
Si       1.00367577      -0.25203888       2.19214460       0.00000000
Si       1.17291258      -1.53347544      -1.57845824       0.00000000
Si      -2.59962336      -0.64814652       0.82905411       0.00000000
Si      -0.72967797       0.89968271      -3.33240768       0.00000000
Si      -0.41682852      -3.27495789      -1.50619918       0.00000000
Si       3.01197213      -2.22909102      -0.07016210       0.00000000
Si      -2.60203428      -0.56374803      -2.65701580       0.00000000
Si      -2.43859671       2.90208698      -0.26964798       0.00000000
Si      -2.07857142      -2.37034161       2.26505681       0.00000000
