10
Lattice="16.28999089631971 0.0 0.0 0.0 16.28999089631971 0.0 0.0 0.0 34.376317263855086" Properties=species:S:1:pos:R:3:initial_magmoms:R:1 pbc="T T T"
Si       0.27116334      -0.19003914      -2.34811004       0.00000000
Si      -0.82165131      -1.87745508       1.23636698       0.00000000
Si       1.86196329       0.84919770       1.38747504       0.00000000
Si      -1.73713302       1.78701300      -0.08580334       0.00000000
Si      -2.08795446      -0.52911549       2.79299625       0.00000000
Si       2.16007029       1.23372315      -2.55395554       0.00000000
Si       0.61577829       2.20061610       2.80917032       0.00000000
Si       2.73093705       2.51228357      -0.22361807       0.00000000
Si      -0.70117047       3.42644742       1.26476527       0.00000000
Si      -3.36052926       0.89112816       1.38587998       0.00000000
