10
Lattice="16.28999089631971 0.0 0.0 0.0 16.28999089631971 0.0 0.0 0.0 34.376317263855086" Properties=species:S:1:pos:R:3:initial_magmoms:R:1 pbc="T T T"
Si       0.03637557      -2.20447683      -0.81509731       0.00000000
Si      -0.27116334       0.19003914       2.34811004       0.00000000
Si       1.88890695       1.42376229      -0.20584550       0.00000000
Si      -1.83905955       0.69561558      -1.50829614       0.00000000
Si      -2.00829636       1.97705214       2.26230670       0.00000000
Si      -3.01197213       2.22909102       0.07016210       0.00000000
Si       0.94864815      -3.48257394       1.11372455       0.00000000
Si       1.36285398       3.16118757      -1.68261854       0.00000000
Si       3.63374514       0.26663472      -1.27481206       0.00000000
Si      -3.42880065      -1.04586687      -1.43603708       0.00000000
