10
Lattice="16.28999089631971 0.0 0.0 0.0 16.28999089631971 0.0 0.0 0.0 34.376317263855086" Properties=species:S:1:pos:R:3:initial_magmoms:R:1 pbc="T T T"
Si      -1.35244467      -1.34822230       1.36820226       0.00000000
Si       1.36430379       1.35941679       1.36497088       0.00000000
Si       1.22626233      -1.44267498      -1.41186364       0.00000000
Si      -1.32090723       1.29655368      -1.47938908       0.00000000
Si       2.31166503       0.40234671      -2.52125196       0.00000000
Si       0.55851894       2.21729706      -2.80207504       0.00000000
Si      -2.35045152      -0.53892207      -2.88787838       0.00000000
Si      -2.71955034      -2.70481508       0.01046416       0.00000000
Si       2.71726974      -2.71364426      -0.01670346       0.00000000
Si      -2.70317889       2.72965014      -0.03283628       0.00000000
