10
Lattice="16.28999089631971 0.0 0.0 0.0 16.28999089631971 0.0 0.0 0.0 34.376317263855086" Properties=species:S:1:pos:R:3:initial_magmoms:R:1 pbc="T T T"
Si       1.35570267      -1.35084499      -1.35724652       0.00000000
Si      -1.35767376      -1.35523840       1.35673087       0.00000000
Si       1.35729909       1.35951453       1.35686838       0.00000000
Si      -1.35710361       1.36001952      -1.36449992       0.00000000
Si      -0.01140300      -2.70743777      -2.71498462       0.00000000
Si       2.71278999      -2.71256266      -0.00110004       0.00000000
Si      -0.00060273      -2.71262298       2.71476804       0.00000000
Si      -2.71590138      -2.71307190       0.00044689       0.00000000
Si       2.71458189       0.00200367       2.71445866       0.00000000
Si      -2.71515204       0.00203625       2.71435553       0.00000000
