10
Lattice="16.28999089631971 0.0 0.0 0.0 16.28999089631971 0.0 0.0 0.0 34.376317263855086" Properties=species:S:1:pos:R:3:initial_magmoms:R:1 pbc="T T T"
Si       0.14973768      -0.02740542      -2.45457355       0.00000000
Si      -2.02496103      -0.10444677       1.59385884       0.00000000
Si       0.83284254       2.38421629       0.53496455       0.00000000
Si       1.72064754      -2.05313802      -0.03588890       0.00000000
Si      -0.84576051      -1.36801320       3.23085998       0.00000000
Si       3.13465212       1.88636131       0.32492513       0.00000000
Si      -0.26246448       3.55807369      -1.24339209       0.00000000
Si       2.81746953      -1.57531974       1.98433965       0.00000000
Si      -0.71125398       2.06691967      -3.24976697       0.00000000
Si       1.44326142      -0.67071975       3.66176736       0.00000000
