10
Lattice="16.28999089631971 0.0 0.0 0.0 16.28999089631971 0.0 0.0 0.0 34.376317263855086" Properties=species:S:1:pos:R:3:initial_magmoms:R:1 pbc="T T T"
Si      -0.14509503      -0.65959350      -2.16973123       0.00000000
Si       2.19732552       0.62807724       0.21859912       0.00000000
Si      -1.41783273       1.89270252       0.02928864       0.00000000
Si      -1.28650275      -1.86199587       1.96347321       0.00000000
Si       1.62955386       0.93349845       2.46454548       0.00000000
Si      -3.24395802       0.39100887      -0.37755530       0.00000000
Si      -2.38342248      -1.40313101      -1.84363730       0.00000000
Si       1.35850455      -2.47120019      -1.91768393       0.00000000
Si      -0.12359223       2.74844880       2.18372240       0.00000000
Si      -1.85736951      -3.14055629      -0.36686426       0.00000000
