10
Lattice="16.28999089631971 0.0 0.0 0.0 16.28999089631971 0.0 0.0 0.0 34.376317263855086" Properties=species:S:1:pos:R:3:initial_magmoms:R:1 pbc="T T T"
Si       1.88340093      -1.37152256      -0.41657245       0.00000000
Si       0.66080385       1.08864930       2.00163094       0.00000000
Si      -0.72420453       1.47724725      -1.72864846       0.00000000
Si      -1.87235631      -1.46343074       0.67539188       0.00000000
Si       0.72967797      -0.89968271       3.33240768       0.00000000
Si       1.90259055      -2.43315815       1.75394944       0.00000000
Si      -2.96675272       0.73891929      -2.02583188       0.00000000
Si       1.22491026      -2.55473042      -2.39761196       0.00000000
Si      -3.77018366      -0.10229631       0.02701980       0.00000000
Si      -0.10303425       3.72922572      -1.19028065       0.00000000
