10
Lattice="16.28999089631971 0.0 0.0 0.0 16.28999089631971 0.0 0.0 0.0 34.376317263855086" Properties=species:S:1:pos:R:3:initial_magmoms:R:1 pbc="T T T"
Si       1.32616890       1.36213722       1.34834305       0.00000000
Si      -1.35918873       1.35277047      -1.35930910       0.00000000
Si       1.35617508      -1.36210464      -1.35965286       0.00000000
Si      -1.38033315      -1.36345671       1.37082517       0.00000000
Si       2.65168620      -0.01332522       2.63326175       0.00000000
Si      -2.71397916       2.71052568       0.00096254       0.00000000
Si      -0.00079821       2.71130760      -2.71562745       0.00000000
Si       2.71564074       2.71178001       0.00127192       0.00000000
Si      -2.71599912      -2.71381626       0.00013751       0.00000000
Si       2.71461447      -0.00342090      -2.71552432       0.00000000
