10
Lattice="16.28999089631971 0.0 0.0 0.0 16.28999089631971 0.0 0.0 0.0 34.376317263855086" Properties=species:S:1:pos:R:3:initial_magmoms:R:1 pbc="T T T"
Si      -0.69155937      -1.61321499      -1.51355572       0.00000000
Si       1.38056121      -0.87640200       1.73404554       0.00000000
Si      -2.28328785       0.32500179       0.64091242       0.00000000
Si       1.27770615       1.67757678      -1.24607344       0.00000000
Si       1.53507186       2.77280235       0.93373005       0.00000000
Si      -2.88202680       1.34025975      -1.42421162       0.00000000
Si       2.72376945       1.04506866       1.98485529       0.00000000
Si      -1.98759177      -0.22731066      -2.91913536       0.00000000
Si      -2.40925842       1.91974392       2.28135119       0.00000000
Si      -2.06351946      -3.22861284      -0.40797836       0.00000000
