10
Lattice="16.28999089631971 0.0 0.0 0.0 16.28999089631971 0.0 0.0 0.0 34.376317263855086" Properties=species:S:1:pos:R:3:initial_magmoms:R:1 pbc="T T T"
Si       1.53220482       1.75358592      -0.07150278       0.00000000
Si      -0.08309529      -0.52162209       2.27471656       0.00000000
Si       0.24123861      -2.31629139      -0.55596849       0.00000000
Si      -2.16899721       0.88601310      -0.51502627       0.00000000
Si      -3.17130462      -1.24025544       0.08556270       0.00000000
Si      -2.21744367      -1.57459140       2.24924370       0.00000000
Si      -1.95766704      -2.71829112      -1.31369170       0.00000000
Si      -0.40088061       1.53792261       3.27757742       0.00000000
Si       1.12990698       2.84956083       1.98354899       0.00000000
Si       3.67969923       0.82842795       0.15142776       0.00000000
