10
Lattice="16.28999089631971 0.0 0.0 0.0 16.28999089631971 0.0 0.0 0.0 34.376317263855086" Properties=species:S:1:pos:R:3:initial_magmoms:R:1 pbc="T T T"
Si      -2.20260348       0.58784094      -0.33850379       0.00000000
Si       0.31778532      -2.05954470      -1.00286086       0.00000000
Si       0.06897186       0.17959725       2.38393018       0.00000000
Si       1.53078759       1.31163822      -1.29402843       0.00000000
Si       3.16656423       1.05399558       0.34094451       0.00000000
Si      -2.01647394       2.46949884       1.06518516       0.00000000
Si       2.04040395       1.44681264       2.38461771       0.00000000
Si      -3.27082023      -1.49177304       0.01100043       0.00000000
Si       0.40088061      -1.53792261      -3.27757742       0.00000000
Si      -2.27800989       1.33201701      -2.51682910       0.00000000
