10
Lattice="16.28999089631971 0.0 0.0 0.0 16.28999089631971 0.0 0.0 0.0 34.376317263855086" Properties=species:S:1:pos:R:3:initial_magmoms:R:1 pbc="T T T"
Si       1.30466610      -1.42115589      -1.35633211       0.00000000
Si       1.36653552       1.34675946       1.37983177       0.00000000
Si      -1.35045729      -1.37138994       1.37642851       0.00000000
Si      -1.43949843       1.34172585      -1.54809706       0.00000000
Si      -2.70580158       2.69006544       0.00853221       0.00000000
Si       2.71466334       2.69260668      -0.00082847       0.00000000
Si      -2.70508482      -2.73338055      -0.00554490       0.00000000
Si       0.00794952       2.69990460       2.73969089       0.00000000
Si      -2.70661608      -0.01436778       2.73972526       0.00000000
Si       2.72360655      -0.01630629       2.73848772       0.00000000
