10
Lattice="16.28999089631971 0.0 0.0 0.0 16.28999089631971 0.0 0.0 0.0 34.376317263855086" Properties=species:S:1:pos:R:3:initial_magmoms:R:1 pbc="T T T"
Si      -0.48698955       0.75914658      -2.16823693       0.00000000
Si      -2.02957110      -0.59722398       1.15585309       0.00000000
Si       0.73076940       2.08243215       1.11966856       0.00000000
Si       1.90772190      -1.72701693      -0.37135145       0.00000000
Si      -2.73227283       0.37049976      -1.50666433       0.00000000
Si      -0.61195014      -1.92526623       2.52506945       0.00000000
Si       2.11367637       0.81370179       2.53234005       0.00000000
Si       0.78392367      -3.29406606       1.07893948       0.00000000
Si       3.50430480      -0.54569871       1.16629662       0.00000000
Si       1.10472264       2.72168433      -2.37435744       0.00000000
