10
Lattice="16.28999089631971 0.0 0.0 0.0 16.28999089631971 0.0 0.0 0.0 34.376317263855086" Properties=species:S:1:pos:R:3:initial_magmoms:R:1 pbc="T T T"
Si       1.35638685       1.35628911       1.35731527       0.00000000
Si      -1.35746199       1.35684297      -1.35793404       0.00000000
Si       1.35754344      -1.35832536      -1.35710901       0.00000000
Si      -1.35843939      -1.35868374       1.35587146       0.00000000
Si      -0.00174303      -2.71384884       2.71456179       0.00000000
Si       2.71412577       2.71454931      -0.00020626       0.00000000
Si      -0.00057015       2.71370223      -2.71555870       0.00000000
Si       2.71438641      -2.71500543      -0.00051565       0.00000000
Si      -2.71430496      -0.00143352      -2.71535244       0.00000000
Si      -0.00109143      -2.71417464      -2.71562745       0.00000000
