10
Lattice="16.28999089631971 0.0 0.0 0.0 16.28999089631971 0.0 0.0 0.0 34.376317263855086" Properties=species:S:1:pos:R:3:initial_magmoms:R:1 pbc="T T T"
Si      -1.94078246      -0.23371263      -1.49179550       0.00000000
Si       0.01009980       0.24286761       2.49331568       0.00000000
Si      -0.72128373       2.38066947       0.48219687       0.00000000
Si       2.36972259      -0.91375497      -1.06112875       0.00000000
Si      -2.93971688      -1.19837222       0.63317774       0.00000000
Si      -1.67830006       2.02872402      -2.34508492       0.00000000
Si       1.16377389       3.50283870      -0.35710138       0.00000000
Si      -0.16102665      -3.55023350       1.09870209       0.00000000
Si       2.43859671      -2.90208698       0.26964798       0.00000000
Si      -1.66529738       2.10238740       2.79749233       0.00000000
