10
Lattice="16.28999089631971 0.0 0.0 0.0 16.28999089631971 0.0 0.0 0.0 34.376317263855086" Properties=species:S:1:pos:R:3:initial_magmoms:R:1 pbc="T T T"
Si       1.32551730      -1.37546244       1.28491870       0.00000000
Si      -1.32616890      -1.36213722      -1.34834305       0.00000000
Si       1.38947184       1.34964279      -1.34707112       0.00000000
Si      -1.41817482       1.22367222       1.50771174       0.00000000
Si       2.14589799       0.36347877       2.62703963       0.00000000
Si       0.28991313       2.16228573       2.93037643       0.00000000
Si      -2.68535763      -0.00936675      -2.70765214       0.00000000
Si      -2.69505018       2.70614367       0.04510175       0.00000000
Si       0.03054375       2.70596448      -2.70610521       0.00000000
Si      -2.70650205      -2.72559393       0.02248212       0.00000000
