10
Lattice="16.28999089631971 0.0 0.0 0.0 16.28999089631971 0.0 0.0 0.0 34.376317263855086" Properties=species:S:1:pos:R:3:initial_magmoms:R:1 pbc="T T T"
Si      -2.17622997       0.48016404      -0.68618605       0.00000000
Si      -0.16118955      -0.38708298       2.29609864       0.00000000
Si       0.63750915      -1.83176163      -1.35250258       0.00000000
Si       1.43203761       1.78658946      -0.64943775       0.00000000
Si      -1.69782525       1.86048090      -2.53669862       0.00000000
Si      -1.23290865      -2.55924045       2.22624593       0.00000000
Si       0.62276670      -0.88801677      -3.56534174       0.00000000
Si      -3.12346089       2.00912715       0.78127100       0.00000000
Si       2.81033451      -2.51480133      -0.66091945       0.00000000
Si       1.94851206      -0.34147098       3.28263075       0.00000000
