10
Lattice="16.28999089631971 0.0 0.0 0.0 16.28999089631971 0.0 0.0 0.0 34.376317263855086" Properties=species:S:1:pos:R:3:initial_magmoms:R:1 pbc="T T T"
Si      -1.77435567       0.04284270      -1.47116970       0.00000000
Si       0.28282698      -2.29630356       0.23179964       0.00000000
Si       1.76347395       1.02490164      -1.15177915       0.00000000
Si      -0.29515851       1.33814205       2.02559125       0.00000000
Si       1.40898726      -2.68912062      -1.81187357       0.00000000
Si       2.90649438      -0.87702102      -1.93476897       0.00000000
Si       2.91877704       2.02362525       0.62221169       0.00000000
Si      -2.42960463       2.28635037      -1.48199824       0.00000000
Si      -0.85416615      -0.19332972      -3.61326235       0.00000000
Si      -2.54044179       0.94949523       2.68716385       0.00000000
