10
Lattice="16.28999089631971 0.0 0.0 0.0 16.28999089631971 0.0 0.0 0.0 34.376317263855086" Properties=species:S:1:pos:R:3:initial_magmoms:R:1 pbc="T T T"
Si      -1.34527707      -1.35122292      -1.38488509       0.00000000
Si       1.37534841       1.36013355      -1.38471321       0.00000000
Si       1.18464138      -1.51117443       1.41688946       0.00000000
Si      -1.29391470       1.26226323       1.72469518       0.00000000
Si       2.32280739       0.10867059       2.71958073       0.00000000
Si      -2.69731449       2.70024084      -0.00233759       0.00000000
Si      -2.71054197      -2.71324611       0.00553459       0.00000000
Si       2.72095128       2.71247952      -0.02609164       0.00000000
Si       2.73163752      -2.71238274      -0.00725341       0.00000000
Si      -2.70241326      -0.00024435      -2.74732243       0.00000000
