10
Lattice="16.28999089631971 0.0 0.0 0.0 16.28999089631971 0.0 0.0 0.0 34.376317263855086" Properties=species:S:1:pos:R:3:initial_magmoms:R:1 pbc="T T T"
Si       1.37420811      -0.90459999      -1.67742771       0.00000000
Si       0.20528658       2.38087214       0.29216448       0.00000000
Si      -2.28902193      -0.69729345      -0.43090738       0.00000000
Si       0.78325578      -0.97031385       2.09647526       0.00000000
Si      -0.98701110       2.51969552       2.25904095       0.00000000
Si       0.01096317       0.72665766       3.63732579       0.00000000
Si      -3.42622683      -0.23969106       1.58175837       0.00000000
Si       2.96697915       0.81211744      -2.22091759       0.00000000
Si      -0.59280939      -2.88976455       2.48527162       0.00000000
Si       1.96318935      -3.16785114      -1.10334290       0.00000000
