10
Lattice="16.28999089631971 0.0 0.0 0.0 16.28999089631971 0.0 0.0 0.0 34.376317263855086" Properties=species:S:1:pos:R:3:initial_magmoms:R:1 pbc="T T T"
Si      -1.74483819       1.15712757       1.06896656       0.00000000
Si       1.15189848      -1.39802409       1.52084350       0.00000000
Si      -0.84698226      -0.74966580      -2.09657839       0.00000000
Si       1.47103587       1.82648367      -0.48185311       0.00000000
Si       1.13759586      -1.83269016      -2.86440824       0.00000000
Si      -2.27089116       2.89455285      -0.40780648       0.00000000
Si      -0.03256371       3.63809035      -0.73390041       0.00000000
Si      -0.43981371      -3.36056184       1.72696402       0.00000000
Si       3.33459558       1.55202975       0.99354488       0.00000000
Si      -3.63374514      -0.26663472       1.27481206       0.00000000
