10
Lattice="16.28999089631971 0.0 0.0 0.0 16.28999089631971 0.0 0.0 0.0 34.376317263855086" Properties=species:S:1:pos:R:3:initial_magmoms:R:1 pbc="T T T"
Si       0.56777166      -0.30542121      -2.24594636       0.00000000
Si       1.80647955       1.01294478       1.12076689       0.00000000
Si      -1.08540270      -1.84502169       1.10938832       0.00000000
Si      -1.75314609       1.81495035      -0.28082308       0.00000000
Si      -1.62955386      -0.93349845      -2.46454548       0.00000000
Si      -2.31166503      -0.40234671       2.52125196       0.00000000
Si       0.42200874       2.33109900       2.51967408       0.00000000
Si       2.52387486      -1.56501125      -2.19187238       0.00000000
Si      -0.53480070       3.22470324      -2.08200561       0.00000000
Si       0.84435957       1.73071476      -3.36616803       0.00000000
