10
Lattice="16.28999089631971 0.0 0.0 0.0 16.28999089631971 0.0 0.0 0.0 34.376317263855086" Properties=species:S:1:pos:R:3:initial_magmoms:R:1 pbc="T T T"
Si       1.35292915       1.33458023       1.37199397       0.00000000
Si      -1.36016613       1.35352061      -1.35851844       0.00000000
Si       1.35405316      -1.36052112      -1.35889658       0.00000000
Si      -1.37585340      -1.35654636       1.37388466       0.00000000
Si      -0.07410321       2.55021007       2.80971549       0.00000000
Si       2.71248767      -2.71532784       0.00275011       0.00000000
Si       2.71374200       2.71426666       0.00209696       0.00000000
Si       2.71317185      -0.00239675      -2.71583371       0.00000000
Si      -0.00152859       2.71301233      -2.71603997       0.00000000
Si      -0.00136905      -2.71702200      -2.71579933       0.00000000
