10
Lattice="16.28999089631971 0.0 0.0 0.0 16.28999089631971 0.0 0.0 0.0 34.376317263855086" Properties=species:S:1:pos:R:3:initial_magmoms:R:1 pbc="T T T"
Si      -1.35650088       1.35428544      -1.36137168       0.00000000
Si       1.35892809      -1.36204925      -1.36092478       0.00000000
Si      -1.36436895      -1.36476806       1.35899971       0.00000000
Si       1.36980981       1.36024758       1.37787232       0.00000000
Si      -2.70997182      -2.71711403       0.00037814       0.00000000
Si      -2.71410948       2.71394658      -0.00378140       0.00000000
Si      -2.71262709      -0.00294849      -2.71824005       0.00000000
Si       0.00201996       2.71278999      -2.71885883       0.00000000
Si       2.72137482       2.71267596      -0.00684089       0.00000000
Si       2.71909422      -2.71556986      -0.00240634       0.00000000
