10
Lattice="16.28999089631971 0.0 0.0 0.0 16.28999089631971 0.0 0.0 0.0 34.376317263855086" Properties=species:S:1:pos:R:3:initial_magmoms:R:1 pbc="T T T"
Si      -1.95610320       1.25959004      -0.05407398       0.00000000
Si      -0.93136446      -2.11414131      -0.71495905       0.00000000
Si       0.85815298      -1.51442445       1.81479556       0.00000000
Si       0.99893442       0.96465959      -2.12497324       0.00000000
Si       2.93971688       1.19837222      -0.63317774       0.00000000
Si       1.14568126      -3.01672134      -1.39973567       0.00000000
Si       2.77869023      -2.35186128       0.46552435       0.00000000
Si      -2.52387486       1.56501125       2.19187238       0.00000000
Si       2.94981668       1.44123983       1.86013794       0.00000000
Si       1.96533216      -0.13768308       3.31554063       0.00000000
