10
Lattice="16.28999089631971 0.0 0.0 0.0 16.28999089631971 0.0 0.0 0.0 34.376317263855086" Properties=species:S:1:pos:R:3:initial_magmoms:R:1 pbc="T T T"
Si       1.31818680      -1.39905036      -1.41434561       0.00000000
Si      -1.39675347       1.30864086      -1.43256507       0.00000000
Si      -1.34561916      -1.55567871       1.24074511       0.00000000
Si       0.99061119       1.65130101       1.48041693       0.00000000
Si       2.56231926       2.62682766      -0.02629790       0.00000000
Si      -2.80797246      -0.27725580       2.44955461       0.00000000
Si      -0.04875597       2.66585850      -2.79476178       0.00000000
Si       2.66975181      -0.04662198      -2.79905882       0.00000000
Si      -2.82691773       2.65859316      -0.16177504       0.00000000
Si       2.58592347       0.38444400       2.89287184       0.00000000
