10
Lattice="16.28999089631971 0.0 0.0 0.0 16.28999089631971 0.0 0.0 0.0 34.376317263855086" Properties=species:S:1:pos:R:3:initial_magmoms:R:1 pbc="T T T"
Si      -0.82007118      -0.57893031       2.11115395       0.00000000
Si       1.34320824       1.92147066       0.25080975       0.00000000
Si       1.22209209      -1.99832688      -0.40684394       0.00000000
Si      -1.38056121       0.87640200      -1.73404554       0.00000000
Si       2.67462252      -1.74871521       1.45779730       0.00000000
Si       1.17566559      -1.21658607       3.26664575       0.00000000
Si       3.31610643       1.37425698      -0.89945684       0.00000000
Si       0.15451065       3.64920435      -0.80031549       0.00000000
Si      -2.36104002      -2.40111342       1.73937387       0.00000000
Si      -2.07212058      -0.73681299      -3.24760126       0.00000000
