10
Lattice="16.28999089631971 0.0 0.0 0.0 16.28999089631971 0.0 0.0 0.0 34.376317263855086" Properties=species:S:1:pos:R:3:initial_magmoms:R:1 pbc="T T T"
Si      -1.99573677       0.63765576      -1.15549180       0.00000000
Si       1.49895693      -0.53212914      -1.80884845       0.00000000
Si      -0.51870618      -2.33223930       0.37556148       0.00000000
Si      -0.46257084       0.29999664       2.46292700       0.00000000
Si       2.01370464       1.21437063       0.96827827       0.00000000
Si      -0.14079447      -2.09249937       2.64663415       0.00000000
Si       3.12267801      -0.87710247       1.10454607       0.00000000
Si      -2.61006525       1.22515461       2.23999646       0.00000000
Si      -2.77791741       2.38594743       0.18508220       0.00000000
Si      -1.17566559       1.21658607      -3.26664575       0.00000000
