10
Lattice="16.28999089631971 0.0 0.0 0.0 16.28999089631971 0.0 0.0 0.0 34.376317263855086" Properties=species:S:1:pos:R:3:initial_magmoms:R:1 pbc="T T T"
Si       0.50979555       0.48426912      -2.25440015       0.00000000
Si      -2.04347366       1.04269032       0.63118391       0.00000000
Si      -0.44788866      -2.32573959      -0.33540991       0.00000000
Si       1.46714256       2.23386399      -0.79911232       0.00000000
Si       1.95856299       1.08066231       2.13473612       0.00000000
Si       0.48503475       2.82590775       1.29595351       0.00000000
Si      -2.83782293      -1.14010452       1.12001542       0.00000000
Si      -1.40523404      -2.93149953       1.78282556       0.00000000
Si       1.67938497      -3.23940985      -0.96212491       0.00000000
Si      -2.03602913      -2.26641141      -2.24659672       0.00000000
