10
Lattice="16.28999089631971 0.0 0.0 0.0 16.28999089631971 0.0 0.0 0.0 34.376317263855086" Properties=species:S:1:pos:R:3:initial_magmoms:R:1 pbc="T T T"
Si       1.57726296       1.71717777      -0.30062106       0.00000000
Si      -0.22833693      -1.60164909      -1.71173530       0.00000000
Si      -1.81064979       1.58459346       0.39439971       0.00000000
Si       0.50771043      -1.46481309       1.90874608       0.00000000
Si      -0.91443915       1.93548006       2.58537551       0.00000000
Si       0.90323163       3.10664961       1.56883287       0.00000000
Si       0.96707214      -3.40912233      -0.73211284       0.00000000
Si      -0.60082407      -0.24252552       3.59174276       0.00000000
Si       1.31487993       2.37164481      -2.59953856       0.00000000
Si      -2.54025445      -2.09460078      -1.84951566       0.00000000
