10
Lattice="16.28999089631971 0.0 0.0 0.0 16.28999089631971 0.0 0.0 0.0 34.376317263855086" Properties=species:S:1:pos:R:3:initial_magmoms:R:1 pbc="T T T"
Si       1.35378014       1.35627282       1.35721214       0.00000000
Si       1.35690945      -1.35702216      -1.35738402       0.00000000
Si      -1.35773013      -1.35798327       1.35752153       0.00000000
Si      -1.35816996       1.35811359      -1.35714339       0.00000000
Si       0.00352743      -2.71427238       2.71170855       0.00000000
Si      -0.00143476      -2.71404432      -2.71421802       0.00000000
Si       2.71410917      -2.71463076       0.00024063       0.00000000
Si      -2.71411698      -0.00030951      -2.71518056       0.00000000
Si       2.71423949       2.71533123       0.00013751       0.00000000
Si       2.71528205       0.00138465      -2.71459616       0.00000000
