10
Lattice="16.28999089631971 0.0 0.0 0.0 16.28999089631971 0.0 0.0 0.0 34.376317263855086" Properties=species:S:1:pos:R:3:initial_magmoms:R:1 pbc="T T T"
Si      -1.74003983      -0.89453277      -1.32472650       0.00000000
Si       1.14826581       1.73249037      -1.25996148       0.00000000
Si      -1.15913124       1.56706542       1.45738478       0.00000000
Si       1.79418060      -1.94574276       0.16414701       0.00000000
Si       0.81207279      -1.35369900       2.25921283       0.00000000
Si      -0.30284902      -2.21591241      -2.72264023       0.00000000
Si       2.45296449       0.49684500      -2.72855296       0.00000000
Si      -0.57490016       0.38068101       3.65705780       0.00000000
Si      -3.31174790      -1.87005942       0.18198833       0.00000000
Si       2.05193727       3.27533256       0.23327782       0.00000000
