10
Lattice="16.28999089631971 0.0 0.0 0.0 16.28999089631971 0.0 0.0 0.0 34.376317263855086" Properties=species:S:1:pos:R:3:initial_magmoms:R:1 pbc="T T T"
Si      -0.50868783      -0.41699142       2.27767293       0.00000000
Si      -2.12039762      -0.04820211      -1.15511366       0.00000000
Si       0.47685717       2.31634026      -0.48996592       0.00000000
Si       1.64455695      -1.71646101      -0.44737364       0.00000000
Si      -0.73342467      -1.78258212      -2.55295863       0.00000000
Si       2.73808836       0.20821878      -2.38530524       0.00000000
Si      -3.22102889       1.83135438      -0.15764988       0.00000000
Si       1.56976956      -1.11812931       3.20772471       0.00000000
Si      -1.62152778       3.33220095      -0.98512267       0.00000000
Si      -2.39422275      -1.96569801       2.33955033       0.00000000
