10
Lattice="16.28999089631971 0.0 0.0 0.0 16.28999089631971 0.0 0.0 0.0 34.376317263855086" Properties=species:S:1:pos:R:3:initial_magmoms:R:1 pbc="T T T"
Si      -1.68638057      -0.90541449       1.51461592       0.00000000
Si       1.79172081      -1.71778050       0.06675885       0.00000000
Si       0.98124118       1.88967258       1.35486221       0.00000000
Si      -1.54607480      -0.65577024      -1.94521938       0.00000000
Si      -0.37554056      -2.27853117       2.88189346       0.00000000
Si       2.33135964       0.47312676       2.87476380       0.00000000
Si      -3.28296347      -2.08673271      -0.02303215       0.00000000
Si       1.01663935      -3.55451058       1.44230530       0.00000000
Si       2.80805391      -1.85953608      -2.17354700       0.00000000
Si       3.60527022      -0.91197936       1.51129517       0.00000000
