10
Lattice="16.28999089631971 0.0 0.0 0.0 16.28999089631971 0.0 0.0 0.0 34.376317263855086" Properties=species:S:1:pos:R:3:initial_magmoms:R:1 pbc="T T T"
Si       1.35542221       1.35650088       1.35690275       0.00000000
Si       1.35718805      -1.35757602      -1.35765903       0.00000000
Si      -1.35786855       1.35749457      -1.35793404       0.00000000
Si      -1.35909030      -1.35811359       1.35693713       0.00000000
Si       2.71454090       2.71462526      -0.00003438       0.00000000
Si       2.71436171      -2.71511946      -0.00020626       0.00000000
Si      -0.00141654      -2.71494027      -2.71476804       0.00000000
Si       2.71625135      -0.00053757      -2.71387426       0.00000000
Si       0.00218355      -2.71345788       2.71669312       0.00000000
Si      -0.00063066       2.71550893      -2.71490555       0.00000000
