10
Lattice="16.28999089631971 0.0 0.0 0.0 16.28999089631971 0.0 0.0 0.0 34.376317263855086" Properties=species:S:1:pos:R:3:initial_magmoms:R:1 pbc="T T T"
Si       1.34855136       1.35477414       1.36656250       0.00000000
Si      -1.35843450       1.35480672      -1.36164669       0.00000000
Si       1.35700587      -1.36081773      -1.36113104       0.00000000
Si      -1.35278350      -1.37810142       1.37601600       0.00000000
Si       2.53395837      -0.01822851       2.85581415       0.00000000
Si      -0.10575468       2.53762362       2.85096709       0.00000000
Si      -2.71167317      -2.71515204      -0.00185632       0.00000000
Si      -2.71248767       2.71532784      -0.00275011       0.00000000
Si       0.00068418       2.71293110      -2.71858382       0.00000000
Si      -2.71385672      -0.00169416      -2.71854944       0.00000000
