10
Lattice="16.28999089631971 0.0 0.0 0.0 16.28999089631971 0.0 0.0 0.0 34.376317263855086" Properties=species:S:1:pos:R:3:initial_magmoms:R:1 pbc="T T T"
Si       1.03457790       1.75491585       1.24047010       0.00000000
Si       1.45430604      -1.18284948      -1.48440459       0.00000000
Si      -1.25380383       1.51228445      -1.48172323       0.00000000
Si      -1.55687602      -1.55302344       1.40942980       0.00000000
Si      -1.09269573       2.66858612       1.86718509       0.00000000
Si       2.63971305      -2.55585213       0.00484706       0.00000000
Si       2.39537934       0.49268520       2.84601690       0.00000000
Si       0.10575468      -2.53762362      -2.85096709       0.00000000
Si      -2.68083620       2.72791430      -0.04400171       0.00000000
Si      -2.60673299       0.17770422      -2.85371720       0.00000000
