10
Lattice="16.290000149 0.0 0.0 0.0 16.290000149 0.0 0.0 0.0 29.1751946751" Properties=species:S:1:pos:R:3:initial_magmoms:R:1 pbc="T T T"
Si      -0.43865712       0.24720075      -2.28340507       0.00000000
Si       0.80943382       1.85958497       1.18101509       0.00000000
Si      -1.87370840      -0.80192413       1.19619203       0.00000000
Si       1.63232317      -1.73571581       0.08441288       0.00000000
Si       2.18455418       0.59507371       2.59815057       0.00000000
Si      -0.67155526      -2.19929663       2.63766254       0.00000000
Si      -2.15508557       1.87970312      -2.17761582       0.00000000
Si      -0.48984030      -2.04688739      -2.95291744       0.00000000
Si       1.71334964      -2.42882273      -2.14520217       0.00000000
Si       0.64267309      -3.52257407       1.23629333       0.00000000
