10
Lattice="16.290000149 0.0 0.0 0.0 16.290000149 0.0 0.0 0.0 29.1751946751" Properties=species:S:1:pos:R:3:initial_magmoms:R:1 pbc="T T T"
Si      -0.69488254       2.04959804       0.76118083       0.00000000
Si       2.05864877      -0.61037490       0.89961713       0.00000000
Si      -1.25314084      -1.78373221       0.83703634       0.00000000
Si      -0.64228213      -0.67200486      -2.14892814       0.00000000
Si      -0.69405175      -2.82019976      -1.17255107       0.00000000
H        0.69537124       2.31194850      -2.14921989       0.00000000
Si      -1.31854519       1.53441050       2.94190993       0.00000000
Si       1.51860268      -1.86726733       2.82342946       0.00000000
Si       1.07851204       3.52744315       0.42925464       0.00000000
Si      -3.54595836       0.78735109      -0.77378451       0.00000000
