10
Lattice="16.290000149 0.0 0.0 0.0 16.290000149 0.0 0.0 0.0 29.1751946751" Properties=species:S:1:pos:R:3:initial_magmoms:R:1 pbc="T T T"
Si      -1.36591651      -1.35739684      -1.33114743       0.00000000
Si      -1.43692462       1.33535647       1.28140373       0.00000000
Si       1.35386191       1.35145099      -1.36172304       0.00000000
Si       1.36230013      -1.32631552       1.38092031       0.00000000
Si      -0.08680941       2.67835295       2.59417079       0.00000000
Si      -0.09169641      -2.62576883       2.68624770       0.00000000
Si       0.00408879      -2.71526609      -2.66322847       0.00000000
Si      -2.70977636       0.02547756      -2.67402329       0.00000000
Si       2.73175157      -0.01422117      -2.67469432       0.00000000
Si       2.73090449       2.69198768      -0.02946695       0.00000000
