10
Lattice="16.290000149 0.0 0.0 0.0 16.290000149 0.0 0.0 0.0 29.1751946751" Properties=species:S:1:pos:R:3:initial_magmoms:R:1 pbc="T T T"
Si       1.71831809      -0.75264688      -1.38494649       0.00000000
Si       1.35842311       1.35115777       1.33660319       0.00000000
Si      -1.43666398       1.18032454      -1.44528079       0.00000000
Si      -1.19271146      -1.69016897       1.18780970       0.00000000
Si      -1.66486408      -0.66645649      -2.88930705       0.00000000
Si       0.64674559      -0.84463651      -3.48707762       0.00000000
Si       2.56416005      -2.59706585      -0.26018439       0.00000000
Si      -2.65381435      -0.40705452       2.52954773       0.00000000
Si      -0.08777052       2.54493785       2.69283546       0.00000000
Si       2.63625959      -0.14423166       2.67530613       0.00000000
