10
Lattice="16.290000149 0.0 0.0 0.0 16.290000149 0.0 0.0 0.0 29.1751946751" Properties=species:S:1:pos:R:3:initial_magmoms:R:1 pbc="T T T"
Si      -1.49455864      -1.36415719       1.16592830       0.00000000
Si       1.38831526      -1.35505108      -1.31571375       0.00000000
Si       1.33512841       1.28845756       1.43396082       0.00000000
Si      -1.34099281       1.34734591      -1.38270000       0.00000000
H       -0.83575846      -2.20340171       2.23887526       0.00000000
Si      -0.00891063      -2.72492607      -2.62941442       0.00000000
Si       2.69105915       2.67055004       0.07684746       0.00000000
Si      -2.92688949      -0.13817178       2.45205841       0.00000000
Si       2.74041786      -2.66424581       0.10870678       0.00000000
Si       2.73261494      -0.00689067      -2.68703543       0.00000000
