10
Lattice="16.290000149 0.0 0.0 0.0 16.290000149 0.0 0.0 0.0 29.1751946751" Properties=species:S:1:pos:R:3:initial_magmoms:R:1 pbc="T T T"
Si       1.42191013       1.43687575       1.16770799       0.00000000
Si       1.43899182      -1.23875677      -1.37044642       0.00000000
Si      -1.29140605       1.41004612      -1.36213149       0.00000000
Si      -1.64309087      -1.05370237       1.42952619       0.00000000
H        0.23330050      -2.65851173       1.68559687       0.00000000
H       -1.10361493       1.40001148       2.81018393       0.00000000
Si      -0.06820623       2.50416398       2.59603800       0.00000000
Si      -2.62888022       2.47298492       0.25612903       0.00000000
Si       2.86829436      -2.45180792       0.01727172       0.00000000
Si       0.08239352      -2.62226648      -2.71416836       0.00000000
