10
Lattice="16.290000149 0.0 0.0 0.0 16.290000149 0.0 0.0 0.0 29.1751946751" Properties=species:S:1:pos:R:3:initial_magmoms:R:1 pbc="T T T"
Si      -1.29921532      -1.28978357       1.47263254       0.00000000
Si      -1.45035394       1.38500839      -1.22532608       0.00000000
Si       1.36174481       1.39492900       1.31899596       0.00000000
Si       1.43219417      -1.30676263      -1.35271082       0.00000000
Si      -2.62334798      -2.62657242       0.13515117       0.00000000
Si      -0.12871364       2.70961346      -2.59159403       0.00000000
Si       0.08729176      -2.51984115      -2.83703969       0.00000000
Si       2.71051935      -2.67990050       0.03523488       0.00000000
Si       2.65563834       0.04193046       2.75082699       0.00000000
Si       0.01125867       2.72174951       2.72559045       0.00000000
