10
Lattice="16.290000149 0.0 0.0 0.0 16.290000149 0.0 0.0 0.0 29.1751946751" Properties=species:S:1:pos:R:3:initial_magmoms:R:1 pbc="T T T"
Si       1.34586841       1.32923143      -1.38107494       0.00000000
Si      -1.33095329      -1.36049194      -1.37839666       0.00000000
Si      -1.35475298       1.38862477       1.32968867       0.00000000
Si       1.36935859      -1.34889346       1.36347355       0.00000000
Si      -2.62657845      -2.67457367       0.09082238       0.00000000
Si       2.70803822       2.69700500      -0.01779687       0.00000000
Si      -2.69551773       0.03547962       2.71524784       0.00000000
Si      -0.03897220       2.66934458      -2.75335648       0.00000000
Si       0.00960133       2.71857296       2.70865425       0.00000000
Si       2.72960618       0.00568521       2.71661908       0.00000000
