10
Lattice="16.290000149 0.0 0.0 0.0 16.290000149 0.0 0.0 0.0 29.1751946751" Properties=species:S:1:pos:R:3:initial_magmoms:R:1 pbc="T T T"
Si      -2.19708119       0.71671114       0.46820352       0.00000000
Si      -0.26875242      -2.03388797       1.19510350       0.00000000
Si       1.57413529       1.31044906       1.21243357       0.00000000
Si      -0.28927782       0.88427008      -2.24083000       0.00000000
H        2.24057549      -0.96480784      -1.63830388       0.00000000
H        0.80242912      -1.87269842      -2.18084580       0.00000000
H        1.61202583      -2.62567109      -0.53425616       0.00000000
H        1.04467771      -2.50186709       1.79121108       0.00000000
Si      -2.14531157       2.86490604      -0.50817354       0.00000000
Si      -0.39118806       3.19040305      -1.99400786       0.00000000
