10
Lattice="16.290000149 0.0 0.0 0.0 16.290000149 0.0 0.0 0.0 29.1751946751" Properties=species:S:1:pos:R:3:initial_magmoms:R:1 pbc="T T T"
Si       1.36736469      -1.45383690       1.17541024       0.00000000
Si      -1.23447400      -1.37275391      -1.43031392       0.00000000
Si       1.41312330       1.28731400      -1.38354608       0.00000000
Si      -1.21337288       1.37941766       1.51436765       0.00000000
H        1.58806162       1.50809238       2.12602561       0.00000000
Si       2.21379310       0.20687160       2.56951775       0.00000000
Si      -2.53053912       2.68038595       0.06103451       0.00000000
Si      -2.53027848      -2.72067763      -0.05829204       0.00000000
Si       0.05876943       2.62240984      -2.75498446       0.00000000
Si      -2.70699240      -0.07966462      -2.69958076       0.00000000
