10
Lattice="16.290000149 0.0 0.0 0.0 16.290000149 0.0 0.0 0.0 29.1751946751" Properties=species:S:1:pos:R:3:initial_magmoms:R:1 pbc="T T T"
Si      -1.38991168      -1.34522821      -1.27535571       0.00000000
Si       1.32989167      -1.40903614       1.31075397       0.00000000
Si      -1.42516324       1.36014985       1.27017128       0.00000000
Si       1.29562516       1.31408173      -1.46921904       0.00000000
Si       2.62657845       2.67457367      -0.09082238       0.00000000
Si       2.66474103      -0.03191211       2.65581797       0.00000000
Si      -0.06893928       2.71005329       2.62442546       0.00000000
Si      -0.13172094      -2.74577727      -2.64016256       0.00000000
Si      -2.75002896      -0.02653641       2.65301715       0.00000000
Si       2.68037780      -2.73585666      -0.09584051       0.00000000
