10
Lattice="16.290000149 0.0 0.0 0.0 16.290000149 0.0 0.0 0.0 29.1751946751" Properties=species:S:1:pos:R:3:initial_magmoms:R:1 pbc="T T T"
Si       1.31070970      -1.42706917       1.29718751       0.00000000
Si      -1.35008263      -1.38533419      -1.32519569       0.00000000
Si       1.37596744       1.32991561      -1.35562542       0.00000000
Si      -1.29785689       1.35930277       1.41741848       0.00000000
Si       2.66082491      -0.08407269       2.60995457       0.00000000
Si      -2.66880050       2.70044219       0.05975080       0.00000000
Si       0.00907353       2.68682375      -2.68426379       0.00000000
Si      -2.68984555      -0.02694366      -2.68793986       0.00000000
Si      -2.62947644      -0.03771135       2.75886476       0.00000000
Si       0.03785796      -2.73694808      -2.65823951       0.00000000
