10
Lattice="16.290000149 0.0 0.0 0.0 16.290000149 0.0 0.0 0.0 29.1751946751" Properties=species:S:1:pos:R:3:initial_magmoms:R:1 pbc="T T T"
Si      -2.07653519       0.70926986      -0.84482611       0.00000000
Si      -0.76344715      -1.49751854       1.72046123       0.00000000
Si       1.06337863      -0.67410790      -2.06382410       0.00000000
Si       0.92755261       2.08017275       0.81530082       0.00000000
H       -1.38955330       2.27671160       1.73163533       0.00000000
Si      -1.30823362       1.31347574      -2.99763455       0.00000000
Si      -2.66848121       2.23965185       0.90419763       0.00000000
H        0.42023313      -3.59485606      -0.53063844       0.00000000
Si      -2.28017648      -2.84144355       0.54557614       0.00000000
Si      -3.33015984      -1.31362073      -0.91572184       0.00000000
