10
Lattice="16.290000149 0.0 0.0 0.0 16.290000149 0.0 0.0 0.0 29.1751946751" Properties=species:S:1:pos:R:3:initial_magmoms:R:1 pbc="T T T"
Si      -1.34857819      -1.35270532       1.35673408       0.00000000
Si      -1.36882666       1.35630541      -1.34016257       0.00000000
Si       1.33015107      -1.35039214      -1.39028555       0.00000000
Si       1.31428298       1.36516717       1.39530369       0.00000000
Si       0.03005593       2.69073335      -2.67437340       0.00000000
Si       2.68145382      -2.70951572      -0.03095488       0.00000000
Si      -2.69229143       0.01039302       2.70976291       0.00000000
Si       2.69041332       2.71342532       0.04554248       0.00000000
Si      -2.71908848      -2.70269021       0.00297587       0.00000000
Si       2.70365709       0.01607823       2.72507988       0.00000000
