10
Lattice="16.290000149 0.0 0.0 0.0 16.290000149 0.0 0.0 0.0 29.1751946751" Properties=species:S:1:pos:R:3:initial_magmoms:R:1 pbc="T T T"
Si      -1.35448093       1.35868375      -1.30416038       0.00000000
Si       1.38927637       1.34995231       1.29342391       0.00000000
Si       1.36202320      -1.34926813      -1.33205186       0.00000000
Si      -1.34452774      -1.31025358       1.39212359       0.00000000
H       -0.43124517      -2.20978739       2.19479155       0.00000000
Si       2.61301376      -0.18357201       2.53605380       0.00000000
Si      -2.66250278      -0.06916734      -2.63291544       0.00000000
Si      -2.55023210       2.76545559       0.17000386       0.00000000
Si       2.60420087      -2.73944046       0.04029094       0.00000000
Si       0.01679499       2.61185717      -2.73689584       0.00000000
