10
Lattice="16.290000149 0.0 0.0 0.0 16.290000149 0.0 0.0 0.0 29.1751946751" Properties=species:S:1:pos:R:3:initial_magmoms:R:1 pbc="T T T"
Si      -1.36120870       1.35174421       1.35209522       0.00000000
Si      -1.35925390      -1.34402275      -1.36338602       0.00000000
Si       1.32388831      -1.36467847       1.39218194       0.00000000
Si       1.35594703       1.37748241      -1.35591717       0.00000000
Si       2.69733080       0.01891269       2.70150633       0.00000000
Si       0.01272249       2.71541270       2.68344688       0.00000000
Si       2.69496875      -2.70473787       0.02710376       0.00000000
Si      -2.72345996      -2.69184759      -0.01353729       0.00000000
Si       0.00325800      -2.70661122      -2.70885848       0.00000000
Si      -2.71549415       2.70343955      -0.01642563       0.00000000
