10
Lattice="16.290000149 0.0 0.0 0.0 16.290000149 0.0 0.0 0.0 29.1751946751" Properties=species:S:1:pos:R:3:initial_magmoms:R:1 pbc="T T T"
Si      -0.47846988       2.02900097      -1.05911792       0.00000000
Si       1.59422086       0.81360406       1.56110632       0.00000000
Si       1.29586951      -1.50140044      -1.32131539       0.00000000
Si      -1.86864221      -0.89819803       1.27679404       0.00000000
H       -2.79676497      -0.73647091      -1.26538654       0.00000000
H        1.03974184       1.18177435      -2.76461227       0.00000000
H       -1.07580790       1.93433978      -2.46002324       0.00000000
Si      -2.19313901       2.47256138       0.46601538       0.00000000
Si       2.22060395      -2.54203823       0.51602167       0.00000000
Si       3.29654217      -0.78283225       1.57653999       0.00000000
