10
Lattice="16.290000149 0.0 0.0 0.0 16.290000149 0.0 0.0 0.0 29.1751946751" Properties=species:S:1:pos:R:3:initial_magmoms:R:1 pbc="T T T"
Si       1.36891387      -1.34814412       1.34162133       0.00000000
Si       1.37963269       1.34376211      -1.33520278       0.00000000
Si      -1.35065278       1.37643985       1.34865255       0.00000000
Si      -1.38054493      -1.34441371      -1.35617975       0.00000000
Si      -0.05458779       2.69023814      -2.59691325       0.00000000
Si      -0.00607617      -2.69017949       2.68426379       0.00000000
Si      -2.72719038       0.02103039       2.68122957       0.00000000
Si       2.72403011      -2.70094718      -0.02439046       0.00000000
Si       2.72605007       0.01495422       2.69960994       0.00000000
Si      -0.04439025      -2.78562261      -2.64505232       0.00000000
