10
Lattice="16.290000149 0.0 0.0 0.0 16.290000149 0.0 0.0 0.0 29.1751946751" Properties=species:S:1:pos:R:3:initial_magmoms:R:1 pbc="T T T"
Si      -2.29055810       0.37716237      -0.05271958       0.00000000
Si       0.24675604      -0.76129687      -2.18423012       0.00000000
Si       1.04998336      -1.52782282       1.46129798       0.00000000
Si       1.25362465       2.02289059       0.07089572       0.00000000
H       -1.59627829       1.69198693      -1.03907456       0.00000000
Si      -2.59540916       1.27864284       2.07132212       0.00000000
Si       2.56671270      -0.18389781       2.63618307       0.00000000
Si       3.33015984       1.31362073       0.91572184       0.00000000
Si       1.90489886      -2.41961888      -2.09606269       0.00000000
Si       2.39508125      -2.86080096       0.10885265       0.00000000
