10
Lattice="16.290000149 0.0 0.0 0.0 16.290000149 0.0 0.0 0.0 29.1751946751" Properties=species:S:1:pos:R:3:initial_magmoms:R:1 pbc="T T T"
Si       1.01851597      -1.61608693      -1.32793816       0.00000000
Si      -2.05864877       0.61037490      -0.89961713       0.00000000
Si      -0.54004609      -1.25689243       1.92381234       0.00000000
Si       1.52941924       1.83858227       0.11334563       0.00000000
Si       2.34142688      -0.20274436      -2.60347767       0.00000000
Si      -3.31178961      -1.17335731      -0.06258079       0.00000000
Si       0.79534297       3.15261513      -1.70283941       0.00000000
Si       2.49199535      -2.69072195       0.16028852       0.00000000
Si      -2.15080130       0.27732096       2.99722610       0.00000000
Si       0.88410718       2.93551830       2.13174395       0.00000000
