10
Lattice="16.290000149 0.0 0.0 0.0 16.290000149 0.0 0.0 0.0 29.1751946751" Properties=species:S:1:pos:R:3:initial_magmoms:R:1 pbc="T T T"
Si      -1.35521398      -1.34400646       1.37543538       0.00000000
Si       1.33459084       1.35107632       1.39457431       0.00000000
Si      -1.37678194       1.34731333      -1.35898057       0.00000000
Si       1.36270738      -1.37409409      -1.34906100       0.00000000
Si       2.71440272      -2.69285105       0.05835039       0.00000000
Si       2.69827562       2.71265969       0.06497316       0.00000000
Si      -2.71546157      -2.69858513       0.02228985       0.00000000
Si      -0.02394630       2.74532115      -2.67919605       0.00000000
Si       2.72994338      -0.02399517      -2.69910521       0.00000000
Si      -2.72844470       2.71666703      -0.00058350       0.00000000
