10
Lattice="16.290000149 0.0 0.0 0.0 16.290000149 0.0 0.0 0.0 29.1751946751" Properties=species:S:1:pos:R:3:initial_magmoms:R:1 pbc="T T T"
Si       2.24399639      -0.50349132       0.27281725       0.00000000
Si      -1.57411900      -1.68745179      -0.44498007       0.00000000
Si      -0.73492336       0.63377875       2.17731969       0.00000000
Si      -0.06380793       1.47356083      -1.92141997       0.00000000
H        0.15078024      -1.16535566      -2.82728059       0.00000000
Si      -2.83294506      -0.57482524      -2.03931693       0.00000000
Si      -1.30619737       3.31973913      -1.26696200       0.00000000
Si       1.26643348      -2.21070778      -2.81575639       0.00000000
Si       3.15808368      -1.31495488      -1.73323997       0.00000000
H       -0.01163106       3.87138370      -0.34493833       0.00000000
