10
Lattice="16.290000149 0.0 0.0 0.0 16.290000149 0.0 0.0 0.0 29.1751946751" Properties=species:S:1:pos:R:3:initial_magmoms:R:1 pbc="T T T"
H        0.84442474       0.93344959       0.81022433       0.00000000
Si      -1.29334456       1.29505501      -1.42567506       0.00000000
Si       1.43008282      -1.44360352      -1.12053170       0.00000000
Si      -1.83029555      -0.82500706       1.16511140       0.00000000
H        1.65402146       0.18047691       2.45681397       0.00000000
H        2.28257111       1.84134017       1.35276625       0.00000000
Si      -2.37460961       2.71598285       0.07264623       0.00000000
Si       2.78044239      -0.05304024      -2.46626673       0.00000000
Si       0.07190406      -2.75234214      -2.51125488       0.00000000
Si      -1.20067075      -1.22572477       3.31293088       0.00000000
