10
Lattice="16.290000149 0.0 0.0 0.0 16.290000149 0.0 0.0 0.0 29.1751946751" Properties=species:S:1:pos:R:3:initial_magmoms:R:1 pbc="T T T"
Si      -0.96938533       1.45560925       1.51194611       0.00000000
Si       1.56936232      -1.27894420       1.12420778       0.00000000
Si       1.61854183       1.02864835      -1.39235699       0.00000000
Si      -1.89684020      -1.49890807      -0.31984766       0.00000000
H       -0.37862847      -2.34613469      -2.02534201       0.00000000
H        0.76859479      -0.71262235      -3.15051257       0.00000000
H       -2.49417821      -1.59356926      -1.72075298       0.00000000
Si       0.17585055      -2.71430498       2.30037657       0.00000000
Si      -2.65890269       2.38467683       0.20049194       0.00000000
H       -2.12467214       2.64184706      -1.18518393       0.00000000
