10
Lattice="16.290000149 0.0 0.0 0.0 16.290000149 0.0 0.0 0.0 29.1751946751" Properties=species:S:1:pos:R:3:initial_magmoms:R:1 pbc="T T T"
Si      -0.10191024       2.30613297       0.24682215       0.00000000
Si       1.60125814       0.06796188      -1.79048170       0.00000000
Si       0.28927782      -0.88427008       2.24083000       0.00000000
Si      -2.12732741      -0.97443523      -0.67759390       0.00000000
H        1.09170694      -2.75696850       0.05998420       0.00000000
H        2.52985331      -1.84907792       0.60252612       0.00000000
Si      -1.85603375       1.98063596       1.73265646       0.00000000
Si      -1.90780337      -0.16755894       2.70903353       0.00000000
Si       3.18107865      -1.01779921      -0.46782425       0.00000000
Si      -1.04606236      -2.39536307      -2.17591519       0.00000000
