10
Lattice="16.290000149 0.0 0.0 0.0 16.290000149 0.0 0.0 0.0 29.1751946751" Properties=species:S:1:pos:R:3:initial_magmoms:R:1 pbc="T T T"
Si      -0.24675604       0.76129687       2.18423012       0.00000000
Si      -1.74979037      -1.02524374      -1.16088100       0.00000000
Si       1.65814283      -1.65832202       0.08816744       0.00000000
Si       0.92874178       1.72768484      -1.29179009       0.00000000
H       -1.84303433       2.45328380       1.14515557       0.00000000
Si      -0.41085987      -2.32231871      -2.58959028       0.00000000
Si      -2.53731413       1.13845924       2.13151055       0.00000000
Si       2.45583155       0.45831915      -2.50346510       0.00000000
Si       3.49031172      -0.36942462      -0.55071097       0.00000000
Si       1.00686862       2.78418746       2.25512585       0.00000000
