10
Lattice="16.290000149 0.0 0.0 0.0 16.290000149 0.0 0.0 0.0 29.1751946751" Properties=species:S:1:pos:R:3:initial_magmoms:R:1 pbc="T T T"
Si      -1.19751049      -0.36411408      -0.88966839       0.00000000
H        1.39457062      -2.03396942       0.45688355       0.00000000
Si      -0.34388190       1.11610936      -2.52406279       0.00000000
Si       0.08078211       2.92749222      -1.03860776       0.00000000
Si      -1.96331806      -2.47726919       0.28772577       0.00000000
Si       1.99819658       1.17506287       2.18828548       0.00000000
Si      -1.45062451      -1.57024198       2.38338000       0.00000000
Si       0.60626494      -0.56319418       3.10485339       0.00000000
H        3.11552769       0.63684127      -0.73775315       0.00000000
Si      -0.66487636      -2.75095749      -1.63363585       0.00000000
