10
Lattice="16.290000149 0.0 0.0 0.0 16.290000149 0.0 0.0 0.0 29.1751946751" Properties=species:S:1:pos:R:3:initial_magmoms:R:1 pbc="T T T"
Si      -1.33203331      -1.35489307      -1.38305010       0.00000000
Si       1.33245685      -1.36619833       1.37193435       0.00000000
Si       1.35172792       1.35147869      -1.37307219       0.00000000
Si      -1.37108044       1.34005940       1.36507818       0.00000000
Si       0.00236205       2.72365056       2.67440257       0.00000000
Si      -2.69496875       2.70473787      -0.02710376       0.00000000
Si       2.70379956       0.00575363       2.70147715       0.00000000
Si       2.70198974      -2.70588794      -0.00843163       0.00000000
Si      -2.69205284      -2.71830092      -0.04072857       0.00000000
Si      -2.69171075      -0.00187335      -2.73596223       0.00000000
