10
Lattice="16.290000149 0.0 0.0 0.0 16.290000149 0.0 0.0 0.0 29.1751946751" Properties=species:S:1:pos:R:3:initial_magmoms:R:1 pbc="T T T"
Si       1.32172174      -1.48854302      -1.20716453       0.00000000
Si       1.36120870       1.28239578       1.40968414       0.00000000
Si      -1.34931700      -1.39531535       1.31086775       0.00000000
Si      -1.38337939       1.32383591      -1.36604097       0.00000000
Si       2.69500133       2.62243399       0.08094658       0.00000000
Si      -2.69760773       2.64711334       0.03532824       0.00000000
Si      -2.67346595      -0.04365259       2.69517239       0.00000000
Si       0.03116277       2.70175000       2.69622270       0.00000000
Si       0.03525156      -2.75225608       2.65041764       0.00000000
Si      -2.68697036      -2.71959462      -0.09375157       0.00000000
