10
Lattice="16.290000149 0.0 0.0 0.0 16.290000149 0.0 0.0 0.0 29.1751946751" Properties=species:S:1:pos:R:3:initial_magmoms:R:1 pbc="T T T"
Si      -1.30908070      -1.28920690       1.47027810       0.00000000
Si      -1.34923555       1.36246303      -1.37559001       0.00000000
Si       1.43171182      -1.37189494      -1.28429499       0.00000000
Si       1.37161801       1.40651119       1.31235277       0.00000000
Si      -2.62071893      -2.64925901       0.12453432       0.00000000
Si       2.64919385       0.06294456      -2.72543582       0.00000000
Si       2.74644516      -2.63515187       0.18844550       0.00000000
Si      -2.71230131       2.71034651       0.01505732       0.00000000
Si       2.71119359       0.07022619       2.73397248       0.00000000
Si      -2.73797436      -0.01554066      -2.71817120       0.00000000
