10
Lattice="16.290000149 0.0 0.0 0.0 16.290000149 0.0 0.0 0.0 29.1751946751" Properties=species:S:1:pos:R:3:initial_magmoms:R:1 pbc="T T T"
Si      -1.02657952       1.49310883       1.46774569       0.00000000
Si       0.91295677       1.83329291      -1.17129654       0.00000000
Si      -1.33478632      -1.45169965      -1.29975492       0.00000000
Si       1.51050655      -1.30781008       1.28825990       0.00000000
H       -1.91044235       2.34046577       0.57475134       0.00000000
H        2.78627421      -1.01670778      -1.30596924       0.00000000
Si       2.32582106      -2.29913804      -0.65119035       0.00000000
Si       0.44908272      -2.99540523      -1.93201057       0.00000000
Si       0.87421915       2.79117750       2.09647114       0.00000000
Si       2.48199329       2.60944625       0.41571735       0.00000000
