10
Lattice="16.290000149 0.0 0.0 0.0 16.290000149 0.0 0.0 0.0 29.1751946751" Properties=species:S:1:pos:R:3:initial_magmoms:R:1 pbc="T T T"
Si       1.37826433       1.36401058       1.30497728       0.00000000
Si      -1.31714425       1.39126375      -1.34156298       0.00000000
Si       1.32722776      -1.35899326      -1.36604097       0.00000000
Si      -1.37039626      -1.35840682       1.33782855       0.00000000
Si      -2.62878248       0.03121164      -2.68730676       0.00000000
Si      -0.00731421       2.67862988       2.66282002       0.00000000
Si       2.73838161       0.04531878      -2.62339558       0.00000000
Si       2.70759350      -0.00263898       2.68079194       0.00000000
Si      -0.09228285      -2.78783805      -2.60217646       0.00000000
Si      -0.00760743      -2.72414414       2.67332309       0.00000000
