10
Lattice="16.290000149 0.0 0.0 0.0 16.290000149 0.0 0.0 0.0 29.1751946751" Properties=species:S:1:pos:R:3:initial_magmoms:R:1 pbc="T T T"
Si      -1.36019872       1.35734797       1.33914144       0.00000000
Si       1.34876314       1.37380087      -1.33698247       0.00000000
Si       1.38274408      -1.35935164       1.32204477       0.00000000
Si      -1.35586558      -1.37160172      -1.33803278       0.00000000
Si       2.67880907      -0.04555336      -2.62352103       0.00000000
Si       0.00620649      -2.71476110       2.65462179       0.00000000
Si      -2.72650620      -0.01102344      -2.65158757       0.00000000
Si       0.01337409       2.70459614       2.68166719       0.00000000
Si       2.73307106       0.01035392       2.67308969       0.00000000
Si      -2.70326036       0.00225454       2.70597013       0.00000000
