10
Lattice="16.290000149 0.0 0.0 0.0 16.290000149 0.0 0.0 0.0 29.1751946751" Properties=species:S:1:pos:R:3:initial_magmoms:R:1 pbc="T T T"
Si       1.82118944      -0.88787017       1.14518474       0.00000000
Si      -0.87858487       1.78061105       1.28297919       0.00000000
Si       1.12031218       1.43971021      -1.55203283       0.00000000
Si      -1.02988639      -2.15011712      -0.38978060       0.00000000
H       -1.92394676      -0.58650517      -1.89329508       0.00000000
Si       2.60908787       2.44889201      -0.08166137       0.00000000
Si      -0.04924467      -2.55591894      -2.54323090       0.00000000
Si      -1.96877684       0.61478461       2.98517674       0.00000000
Si       0.99668737       3.24078150       1.43778277       0.00000000
H        3.21144321      -0.62551972      -1.76521598       0.00000000
