10
Lattice="16.290000149 0.0 0.0 0.0 16.290000149 0.0 0.0 0.0 29.1751946751" Properties=species:S:1:pos:R:3:initial_magmoms:R:1 pbc="T T T"
Si       1.37344249       1.38359116       1.30932439       0.00000000
Si       1.37108044      -1.34005940      -1.36507818       0.00000000
Si      -1.32388831       1.36467847      -1.39218194       0.00000000
Si      -1.36707310      -1.35860393       1.37704001       0.00000000
Si      -2.67375917      -2.67367772      -0.06821161       0.00000000
Si       2.67814118       0.00316026       2.68373863       0.00000000
Si      -2.68509701       2.71642268      -0.04008672       0.00000000
Si       2.70353729      -2.70625772       0.00685617       0.00000000
Si      -2.69386103       0.03551220       2.73896728       0.00000000
Si       0.04766454       2.75354760       2.68134627       0.00000000
