10
Lattice="16.290000149 0.0 0.0 0.0 16.290000149 0.0 0.0 0.0 29.1751946751" Properties=species:S:1:pos:R:3:initial_magmoms:R:1 pbc="T T T"
Si      -1.37788966       1.36567216       1.31297129       0.00000000
Si      -1.37772676      -1.33600807      -1.34436380       0.00000000
Si       1.35653347       1.35531172      -1.35746346       0.00000000
Si       1.35428545      -1.35169534       1.36852086       0.00000000
Si      -0.00084708       2.70620885       2.64522738       0.00000000
Si      -0.00654858      -2.68172498      -2.68245492       0.00000000
Si      -2.73175157       0.01422117       2.67469432       0.00000000
Si       2.71549415      -2.70343955       0.01642563       0.00000000
Si       0.00076563       2.72572428      -2.69593386       0.00000000
Si       2.72821664       0.01197315       2.69987252       0.00000000
