10
Lattice="16.290000149 0.0 0.0 0.0 16.290000149 0.0 0.0 0.0 29.1751946751" Properties=species:S:1:pos:R:3:initial_magmoms:R:1 pbc="T T T"
Si       1.35475298      -1.38862477      -1.32968867       0.00000000
Si       1.36435430       1.32994819       1.37896558       0.00000000
Si      -1.34076475      -1.35314515       1.38555917       0.00000000
Si      -1.34793235       1.38520387      -1.36201479       0.00000000
Si      -2.69184107       2.68785002       0.06214316       0.00000000
Si       2.71112843       2.67773393       0.01091152       0.00000000
Si      -2.69698871      -2.70304859       0.03130498       0.00000000
Si       2.70062138      -0.05939334      -2.71076362       0.00000000
Si      -2.69488730       0.05160672      -2.74978252       0.00000000
Si       0.03420323       2.68034033       2.76925113       0.00000000
