10
Lattice="16.290000149 0.0 0.0 0.0 16.290000149 0.0 0.0 0.0 29.1751946751" Properties=species:S:1:pos:R:3:initial_magmoms:R:1 pbc="T T T"
Si       2.30361779       0.06046848      -0.44993985       0.00000000
Si      -0.86268583       2.07831080      -0.79067695       0.00000000
Si      -0.14046867       0.41502033       2.35960222       0.00000000
Si      -0.92755261      -2.08017275      -0.81530082       0.00000000
H       -2.31710591       0.19653885       0.91633451       0.00000000
H       -1.01740825       2.87083560       0.48693400       0.00000000
Si      -3.59603382       0.15947910       0.08889682       0.00000000
Si      -3.00408780      -1.37090288      -1.66012693       0.00000000
Si       3.07522623       2.10590606       0.43100515       0.00000000
Si       2.06272127       0.03308499       3.16731748       0.00000000
