10
Lattice="16.290000149 0.0 0.0 0.0 16.290000149 0.0 0.0 0.0 29.1751946751" Properties=species:S:1:pos:R:3:initial_magmoms:R:1 pbc="T T T"
Si      -1.22994388       0.73529151      -0.74458014       0.00000000
Si      -0.69427981      -1.31482456       0.98635498       0.00000000
Si       1.59627829      -1.69198693       1.03907456       0.00000000
Si       0.19103853       2.10765561      -2.09798825       0.00000000
Si       2.84990295       0.33090366       1.10997028       0.00000000
H       -0.76220911       2.85621369       1.35787191       0.00000000
Si       1.84303433      -2.45328380      -1.14515557       0.00000000
Si      -0.99913087      -0.41334409       3.11039668       0.00000000
Si      -2.41377077      -0.58525475      -2.32561312       0.00000000
Si      -3.22577841       1.45607189       0.39121019       0.00000000
