10
Lattice="16.290000149 0.0 0.0 0.0 16.290000149 0.0 0.0 0.0 29.1751946751" Properties=species:S:1:pos:R:3:initial_magmoms:R:1 pbc="T T T"
Si      -1.36174481      -1.39492900      -1.31899596       0.00000000
Si       1.29389353      -1.35299854       1.43183103       0.00000000
Si      -1.35048614       1.32682051       1.40659449       0.00000000
Si       1.37438243       1.36075258      -1.36142837       0.00000000
Si      -2.66096012      -2.68471257       0.15363658       0.00000000
Si      -2.81209874      -0.00992061      -2.54432205       0.00000000
Si       0.07044936      -2.70169164      -2.67170678       0.00000000
Si       2.69441001       2.70220151       0.03264704       0.00000000
Si       2.64993831      -2.74803669       0.14237495       0.00000000
Si      -2.68037780       2.73585666       0.09584051       0.00000000
