10
Lattice="16.290000149 0.0 0.0 0.0 16.290000149 0.0 0.0 0.0 29.1751946751" Properties=species:S:1:pos:R:3:initial_magmoms:R:1 pbc="T T T"
Si       1.30469869      -1.38043090       1.37441425       0.00000000
Si      -1.37344249      -1.38359116      -1.30932439       0.00000000
Si      -1.32577795       1.36995643       1.37202188       0.00000000
Si       1.35374788       1.34864911      -1.37324724       0.00000000
Si      -2.68460831       2.69650001      -0.01805945       0.00000000
Si       2.68750468      -0.01571985       2.70156468       0.00000000
Si      -0.00236205      -2.72365056      -2.67440257       0.00000000
Si      -2.69733080      -0.01891269      -2.70150633       0.00000000
Si       2.69703107       2.71094924      -0.02144377       0.00000000
Si      -2.67007763       0.02179602       2.74334356       0.00000000
