10
Lattice="16.290000149 0.0 0.0 0.0 16.290000149 0.0 0.0 0.0 29.1751946751" Properties=species:S:1:pos:R:3:initial_magmoms:R:1 pbc="T T T"
Si       1.36882666      -1.35630541       1.34016257       0.00000000
Si       1.39888259       1.33442794      -1.33421083       0.00000000
Si      -1.35091342       1.35985663       1.36084778       0.00000000
Si      -1.35721765      -1.34879572      -1.36694540       0.00000000
Si       0.08221563       2.76958673      -2.61015879       0.00000000
Si       0.02024847      -2.70901073       2.69689665       0.00000000
Si       2.69897772      -2.70669755      -0.05012298       0.00000000
Si      -2.71093295      -0.00355122       2.70316931       0.00000000
Si       2.68310963       0.00886176       2.73546625       0.00000000
Si      -2.71059086       2.71287635       0.00793565       0.00000000
