10
Lattice="16.290000149 0.0 0.0 0.0 16.290000149 0.0 0.0 0.0 29.1751946751" Properties=species:S:1:pos:R:3:initial_magmoms:R:1 pbc="T T T"
Si      -1.33773481      -1.44723619       1.25642976       0.00000000
Si       1.34371324      -1.36309834      -1.35302883       0.00000000
Si      -1.38746818       1.34236117      -1.34675616       0.00000000
Si       1.25791381       1.36796905       1.45520036       0.00000000
Si      -2.69887835      -0.07734492       2.51907383       0.00000000
Si       2.63704151       2.69446376       0.06590676       0.00000000
Si      -0.02744865       2.70576902      -2.68907769       0.00000000
Si       2.69229143      -0.01039302      -2.70976291       0.00000000
Si       2.68796405      -2.71933859       0.01441255       0.00000000
Si      -0.02679705      -2.71308323      -2.70678704       0.00000000
