10
Lattice="16.290000149 0.0 0.0 0.0 16.290000149 0.0 0.0 0.0 29.1751946751" Properties=species:S:1:pos:R:3:initial_magmoms:R:1 pbc="T T T"
Si      -1.39248550      -1.34351776      -1.32910517       0.00000000
Si      -1.35891181       1.35553978       1.35422501       0.00000000
Si       1.32986674      -1.37018449       1.37216776       0.00000000
Si       1.36054081       1.34431597      -1.37222611       0.00000000
Si      -0.03644073      -2.73855591      -2.61856125       0.00000000
Si       2.70747947       2.70124040      -0.00991957       0.00000000
Si      -2.70201581       2.71342532      -0.00927771       0.00000000
Si       2.69006546      -2.72753246       0.03302632       0.00000000
Si       2.70343955      -0.02293632       2.71469351       0.00000000
Si      -0.01042560       2.71780733       2.70389869       0.00000000
