10
Lattice="16.290000149 0.0 0.0 0.0 16.290000149 0.0 0.0 0.0 29.1751946751" Properties=species:S:1:pos:R:3:initial_magmoms:R:1 pbc="T T T"
Si       1.31250160       1.35716878      -1.38553000       0.00000000
Si      -1.38973249       1.47173635       1.21468006       0.00000000
Si       1.59363442      -1.30504078       1.21581789       0.00000000
Si      -1.50579874      -1.33882624      -1.29934647       0.00000000
Si      -1.71072695      -2.39533049       2.10510700       0.00000000
Si      -2.24336108      -0.00848709       2.84907446       0.00000000
Si       2.36879408      -0.11241729      -2.86182402       0.00000000
Si       3.46890666       0.15512967       1.37062147       0.00000000
Si       3.12649086       2.10774683       0.00005835       0.00000000
H        2.06967710       0.99246826       3.00098970       0.00000000
