10
Lattice="10.86 0.0 0.0 0.0 10.86 0.0 0.0 0.0 10.86" Properties=species:S:1:pos:R:3:initial_magmoms:R:1 pbc="T T T"
Si      -1.19487150       1.29003768      -1.24190616       0.00000000
Si       1.36336440      -1.18130736      -1.24668456       0.00000000
Si      -1.35163560      -1.18130736       1.46831544       0.00000000
Si       1.36336440       1.53369264       1.46831544       0.00000000
Si       0.00586440      -2.53880736      -2.60418456       0.00000000
Si       2.60251212       0.03630498      -2.57478654       0.00000000
Si      -2.70913560      -2.53880736       0.11081544       0.00000000
Si       2.72086440      -2.53880736       0.11081544       0.00000000
Si      -2.53027140       0.26188890      -2.78842446       0.00000000
Si       0.00586440      -2.53880736       2.82581544       0.00000000
