10
Lattice="10.86 0.0 0.0 0.0 10.86 0.0 0.0 0.0 10.86" Properties=species:S:1:pos:R:3:initial_magmoms:R:1 pbc="T T T"
Si      -1.13793252      -1.28301126       1.42835064       0.00000000
Si      -1.13793252       1.43198874      -1.28664936       0.00000000
Si       1.55571672       1.08422982       1.31321292       0.00000000
Si       1.57706748      -1.28301126      -1.28664936       0.00000000
Si      -2.49543252      -2.64051126       0.07085064       0.00000000
Si      -2.49543252       0.07448874      -2.64414936       0.00000000
Si       0.39843168      -2.55481500       2.60161074       0.00000000
Si      -2.49543252       0.07448874       2.78585064       0.00000000
Si       0.21956748      -2.64051126      -2.64414936       0.00000000
Si      -2.49543252       2.78948874       0.07085064       0.00000000
