10
Lattice="10.86 0.0 0.0 0.0 10.86 0.0 0.0 0.0 10.86" Properties=species:S:1:pos:R:3:initial_magmoms:R:1 pbc="T T T"
Si      -1.24812894      -1.21584216       1.34097108       0.00000000
Si      -1.24812894       1.49915784      -1.37402892       0.00000000
Si       1.46687106       1.49915784       1.34097108       0.00000000
Si       1.62363516      -1.45949712      -1.36925052       0.00000000
Si      -2.60562894      -2.57334216      -0.01652892       0.00000000
Si       0.10937106      -2.57334216       2.69847108       0.00000000
Si      -2.60562894       0.14165784       2.69847108       0.00000000
Si      -2.60562894       0.14165784      -2.73152892       0.00000000
Si       0.28823526      -2.48764590      -2.91576882       0.00000000
Si      -2.60562894       2.85665784      -0.01652892       0.00000000
