10
Lattice="10.86 0.0 0.0 0.0 10.86 0.0 0.0 0.0 10.86" Properties=species:S:1:pos:R:3:initial_magmoms:R:1 pbc="T T T"
Si       1.21690644       1.27033764       1.26962088       0.00000000
Si      -1.49809356      -1.44466236       1.26962088       0.00000000
Si      -1.49809356       1.27033764      -1.44537912       0.00000000
Si       2.46945540      -0.17272830      -2.53321446       0.00000000
Si       2.51147274      -2.59413906      -0.27204300       0.00000000
Si       2.57440644      -0.08716236       2.62712088       0.00000000
Si       2.57440644       2.62783764      -0.08787912       0.00000000
Si      -0.14059356       2.62783764       2.62712088       0.00000000
Si      -0.14059356      -2.80216236       2.62712088       0.00000000
Si      -0.14059356       2.62783764      -2.80287912       0.00000000
