10
Lattice="10.86 0.0 0.0 0.0 10.86 0.0 0.0 0.0 10.86" Properties=species:S:1:pos:R:3:initial_magmoms:R:1 pbc="T T T"
Si       1.34603184      -1.26988152      -1.34911608       0.00000000
Si      -1.36896816      -1.26988152       1.36588392       0.00000000
Si       1.34603184       1.44511848       1.36588392       0.00000000
Si      -1.07241414       1.50406656      -1.54264128       0.00000000
Si       2.72059290      -0.25067052      -2.48708118       0.00000000
Si       2.70353184      -2.62738152       0.00838392       0.00000000
Si      -0.01146816      -2.62738152      -2.70661608       0.00000000
Si      -0.01146816      -2.62738152       2.72338392       0.00000000
Si      -2.72646816      -2.62738152       0.00838392       0.00000000
Si       2.43918858       2.93639196      -0.20414628       0.00000000
