10
Lattice="16.28999089631971 0.0 0.0 0.0 16.28999089631971 0.0 0.0 0.0 34.36671206372826" Properties=species:S:1:pos:R:3:initial_magmoms:R:1 pbc="T T T"
Si       0.30400072      -2.09538270       1.11093896       0.00000000
Si      -1.08463430      -0.68698188      -2.03141749       0.00000000
Si      -1.50830317       1.52520012       1.08756958       0.00000000
Si       2.21693379       0.52121484      -0.81016132       0.00000000
Si       2.30823924      -1.61670105       2.22373371       0.00000000
Si       2.02472808      -0.44103546      -2.99609163       0.00000000
Si      -0.00215354      -3.72334014      -0.67131973       0.00000000
Si      -3.71326870       0.87599475       0.50611885       0.00000000
Si       3.75099567      -0.44072595       0.82005894       0.00000000
Si      -3.72573055      -1.40589216      -0.29727223       0.00000000
