10
Lattice="16.28999089631971 0.0 0.0 0.0 16.28999089631971 0.0 0.0 0.0 34.36671206372826" Properties=species:S:1:pos:R:3:initial_magmoms:R:1 pbc="T T T"
Si       0.52139615       2.23678709      -0.41573435       0.00000000
Si      -1.52104961      -0.38942874       1.80106214       0.00000000
Si      -1.30297538      -1.19275380      -1.65585785       0.00000000
Si       2.14169892      -1.02506454       0.65128121       0.00000000
Si       1.37807422       2.58241365       1.82054120       0.00000000
Si       2.50340208       1.75457051      -1.59977134       0.00000000
Si      -2.88958880      -1.94919624       0.64413878       0.00000000
Si      -0.03880622      -1.58809581       3.25871330       0.00000000
Si       1.26879601      -2.96230392       1.72708431       0.00000000
Si       3.64406046      -0.28867509      -1.09423672       0.00000000
