10
Lattice="16.28999089631971 0.0 0.0 0.0 16.28999089631971 0.0 0.0 0.0 34.36671206372826" Properties=species:S:1:pos:R:3:initial_magmoms:R:1 pbc="T T T"
Si      -0.99230535      -0.32562570      -2.19710435       0.00000000
Si      -1.87791120       0.76346343       1.37312962       0.00000000
Si       0.79014645      -1.90765479       1.37624325       0.00000000
Si       1.85254767       1.81949526       0.04254945       0.00000000
Si      -1.61587026      -2.61310238      -1.58472356       0.00000000
Si      -0.56089728       2.12980347       2.73501788       0.00000000
Si       2.16510390      -0.59591101       2.73556775       0.00000000
Si       0.79928514       3.48333957       1.35641708       0.00000000
Si       3.14206407      -1.74623261      -1.36759455       0.00000000
Si       3.51903096       0.75085497       1.36444858       0.00000000
