10
Lattice="16.28999089631971 0.0 0.0 0.0 16.28999089631971 0.0 0.0 0.0 34.36671206372826" Properties=species:S:1:pos:R:3:initial_magmoms:R:1 pbc="T T T"
Si       1.34372952       1.36412198       1.34755390       0.00000000
Si       1.35584928      -1.35316147      -1.35789829       0.00000000
Si      -1.35907470       1.36006088      -1.35769209       0.00000000
Si      -1.35138582      -1.36624234       1.36549333       0.00000000
Si      -2.67885792      -0.01822855       2.72559109       0.00000000
Si      -2.71407690      -2.71184521       0.00147777       0.00000000
Si       2.71417464      -2.71195924       0.00766378       0.00000000
Si      -0.00104256      -2.71176376      -2.71455937       0.00000000
Si       2.71437012       0.00358725      -2.71493740       0.00000000
Si      -2.71557558       0.00294095      -2.71486867       0.00000000
