10
Lattice="16.28999089631971 0.0 0.0 0.0 16.28999089631971 0.0 0.0 0.0 34.36671206372826" Properties=species:S:1:pos:R:3:initial_magmoms:R:1 pbc="T T T"
Si       1.46916252      -1.18847605       1.34762263       0.00000000
Si      -1.34372952      -1.36412198      -1.34755390       0.00000000
Si      -1.21435434       1.33810295       1.49110374       0.00000000
Si       1.37140623       1.35509342      -1.34765700       0.00000000
Si       0.64536093       2.25754313       2.80769321       0.00000000
Si       2.35879200       0.65164235       2.77466678       0.00000000
Si      -2.69472438       2.70442670       0.04017471       0.00000000
Si      -2.70280422      -0.00406110      -2.70524599       0.00000000
Si       0.01242927       2.71061690      -2.70503978       0.00000000
Si       0.01211976      -2.71728344      -2.70545219       0.00000000
