10
Lattice="16.28999089631971 0.0 0.0 0.0 16.28999089631971 0.0 0.0 0.0 34.36671206372826" Properties=species:S:1:pos:R:3:initial_magmoms:R:1 pbc="T T T"
Si       1.47413097       1.32782885      -1.28761832       0.00000000
Si      -1.33410213      -1.39262463      -1.40068487       0.00000000
Si       1.39491270      -0.97431793       1.69455479       0.00000000
Si      -1.77855849       1.26372770       1.03546961       0.00000000
Si       0.32259087       0.18947225       3.56059956       0.00000000
Si      -3.35383244      -0.68561841       1.37783099       0.00000000
Si      -0.66386637       2.25235151       2.85804047       0.00000000
Si      -2.74083974      -2.60359065       0.04429872       0.00000000
Si      -0.00623907       2.69415260      -2.73854735       0.00000000
Si       2.68848531      -0.01027410      -2.77872206       0.00000000
