10
Lattice="16.28999089631971 0.0 0.0 0.0 16.28999089631971 0.0 0.0 0.0 34.36671206372826" Properties=species:S:1:pos:R:3:initial_magmoms:R:1 pbc="T T T"
Si      -1.20311424      -0.36429720      -1.94725336       0.00000000
Si       0.40501827      -1.83671772       1.39071851       0.00000000
Si       2.16114543       0.50983465      -0.74098109       0.00000000
Si      -1.64788011       1.02440154       1.35518331       0.00000000
Si      -3.24420237      -0.67887339       1.17462051       0.00000000
Si       0.88400943      -0.68079561       3.38209876       0.00000000
Si      -1.86784398      -2.52317832       1.77810031       0.00000000
Si      -3.42326205      -0.94293429      -1.17431121       0.00000000
Si       3.39079608       1.21789253       1.11746863       0.00000000
Si      -1.07272908       0.63270523       3.62039767       0.00000000
