10
Lattice="16.28999089631971 0.0 0.0 0.0 16.28999089631971 0.0 0.0 0.0 34.36671206372826" Properties=species:S:1:pos:R:3:initial_magmoms:R:1 pbc="T T T"
Si      -1.35666378       1.35812988       1.35597375       0.00000000
Si       1.35645201       1.35653346      -1.35913549       0.00000000
Si       1.35861858      -1.35767376       1.35621432       0.00000000
Si      -1.35697329      -1.35962856      -1.35690165       0.00000000
Si      -0.00417024      -2.70948312      -2.71167256       0.00000000
Si      -2.70933651       0.00182448      -2.71665574       0.00000000
Si      -0.00076563       2.71336014       2.71349400       0.00000000
Si      -2.71357191      -2.71445157      -0.00068733       0.00000000
Si      -2.71464705      -0.00034209       2.71342527       0.00000000
Si      -2.71360449       2.71485882      -0.00082480       0.00000000
