10
Lattice="16.28999089631971 0.0 0.0 0.0 16.28999089631971 0.0 0.0 0.0 34.36671206372826" Properties=species:S:1:pos:R:3:initial_magmoms:R:1 pbc="T T T"
Si      -1.35703845      -1.35746199      -1.35748589       0.00000000
Si       1.35798327       1.35847197      -1.35745152       0.00000000
Si      -1.35666378       1.35765747       1.35961662       0.00000000
Si       1.35902583      -1.35674523       1.35954789       0.00000000
Si       2.71388142       2.71370223       0.00006873       0.00000000
Si       2.71464705       0.00034209      -2.71342527       0.00000000
Si       0.00107514      -2.71410948      -2.71411260       0.00000000
Si      -2.71415509       0.00037467      -2.71435317       0.00000000
Si      -2.71395310       2.71507059       0.00003437       0.00000000
Si       0.00104256       2.71520091      -2.71425007       0.00000000
