10
Lattice="16.28999089631971 0.0 0.0 0.0 16.28999089631971 0.0 0.0 0.0 34.36671206372826" Properties=species:S:1:pos:R:3:initial_magmoms:R:1 pbc="T T T"
Si       1.35550719       1.34244261       1.37133568       0.00000000
Si       1.35627282      -1.35913986      -1.35906675       0.00000000
Si      -1.35902583       1.35674523      -1.35954789       0.00000000
Si      -1.35088083      -1.36533006       1.38614774       0.00000000
Si      -0.10881720       2.60866431       2.70225608       0.00000000
Si       2.71524978      -2.71466334      -0.00168397       0.00000000
Si      -2.71568961       2.71440270       0.00006873       0.00000000
Si      -2.71471221      -2.71575477       0.00158087       0.00000000
Si       2.71423980      -0.00058644      -2.71675884       0.00000000
Si      -0.00104256       2.71521720      -2.71699941       0.00000000
