10
Lattice="16.28999089631971 0.0 0.0 0.0 16.28999089631971 0.0 0.0 0.0 34.36671206372826" Properties=species:S:1:pos:R:3:initial_magmoms:R:1 pbc="T T T"
Si       1.36449927       1.14117966       1.48223712       0.00000000
Si      -1.82500128      -0.95327451       1.12832852       0.00000000
Si       1.46432439      -1.26622170      -1.33092040       0.00000000
Si      -1.24607097       1.46952090      -1.34903167       0.00000000
Si      -0.59787558       2.05907229       2.50540344       0.00000000
Si      -2.60687241       0.10573839      -2.70218735       0.00000000
Si       0.10881720      -2.60866431      -2.70225608       0.00000000
Si       2.77356798       2.63218707       0.18265918       0.00000000
Si      -2.70264132       2.71339272       0.04801032       0.00000000
Si      -3.63097584       0.76435938       1.13503003       0.00000000
