10
Lattice="16.28999089631971 0.0 0.0 0.0 16.28999089631971 0.0 0.0 0.0 34.36671206372826" Properties=species:S:1:pos:R:3:initial_magmoms:R:1 pbc="T T T"
Si       0.31732920       0.90290257       2.18328407       0.00000000
Si       1.88587701       1.38690617      -0.45666513       0.00000000
Si       1.05868710      -2.10825573      -0.56674177       0.00000000
Si      -1.79054630       0.51181551      -2.63943369       0.00000000
Si       1.64463840      -0.83116860       3.03874075       0.00000000
Si       0.89941977       3.44978543      -1.15922421       0.00000000
Si       2.95819884       0.22311599      -2.32270990       0.00000000
Si      -0.10119348      -2.89436226      -2.53444333       0.00000000
Si      -0.21527235       2.46116162      -2.98179507       0.00000000
Si      -1.66735318       1.38826312       3.29982480       0.00000000
