10
Lattice="16.28999089631971 0.0 0.0 0.0 16.28999089631971 0.0 0.0 0.0 34.36671206372826" Properties=species:S:1:pos:R:3:initial_magmoms:R:1 pbc="T T T"
Si       0.89246394       2.11001112      -0.46202634       0.00000000
Si       1.56678849      -1.42123734       1.02481593       0.00000000
Si      -0.05416425      -0.95438223      -2.15166668       0.00000000
Si      -2.26663947      -0.00490329       0.79136272       0.00000000
Si      -1.98237897      -2.39454855      -1.92171888       0.00000000
Si      -0.81308277       3.22939476      -1.70493354       0.00000000
Si       0.32527872      -2.85029388       2.43464234       0.00000000
Si       1.15955478       3.25136997       1.57743297       0.00000000
Si       3.24004842      -1.95841638      -0.72637523       0.00000000
Si       2.27053278      -1.34796492      -2.83199049       0.00000000
