10
Lattice="16.28999089631971 0.0 0.0 0.0 16.28999089631971 0.0 0.0 0.0 34.36671206372826" Properties=species:S:1:pos:R:3:initial_magmoms:R:1 pbc="T T T"
Si      -1.35221661       1.35847197       1.35762335       0.00000000
Si      -1.35589815      -1.35523026      -1.35752025       0.00000000
Si       1.36068741      -1.35355239       1.35679855       0.00000000
Si       1.35918873       1.35856971      -1.35648925       0.00000000
Si      -2.70974376       0.00773775       2.71270357       0.00000000
Si       0.00076563      -2.71336014      -2.71349400       0.00000000
Si      -2.71283886       0.00149868      -2.71431880       0.00000000
Si      -2.71388142      -2.71370223      -0.00006873       0.00000000
Si      -2.71295289       2.71505430       0.00051550       0.00000000
Si       2.70252729      -0.01353699       2.72689703       0.00000000
