10
Lattice="16.28999089631971 0.0 0.0 0.0 16.28999089631971 0.0 0.0 0.0 34.36671206372826" Properties=species:S:1:pos:R:3:initial_magmoms:R:1 pbc="T T T"
Si       0.27329733       0.19710900      -2.33539122       0.00000000
Si      -0.77525739      -2.15767566       0.60186456       0.00000000
Si      -1.92557574       1.37013561       0.25493241       0.00000000
Si       2.04691995       0.26943660       1.29830637       0.00000000
Si      -1.17556785       3.04279281       1.69266462       0.00000000
Si      -2.18111697      -1.69543062       2.46639720       0.00000000
Si       3.53414808      -1.21091715       0.19204129       0.00000000
Si      -3.36833217       0.19416051       1.65860718       0.00000000
Si       2.91522582       2.30830929       0.65152449       0.00000000
Si       1.51011558      -1.62782712      -3.11513799       0.00000000
