10
Lattice="16.28999089631971 0.0 0.0 0.0 16.28999089631971 0.0 0.0 0.0 34.36671206372826" Properties=species:S:1:pos:R:3:initial_magmoms:R:1 pbc="T T T"
Si       0.77525739       2.15767566      -0.60186456       0.00000000
Si      -1.40585958       0.46224504       1.86453264       0.00000000
Si       1.70554671      -1.11938364       1.24290720       0.00000000
Si      -1.35881406      -1.13508720      -1.68152979       0.00000000
Si       0.15262101      -2.84938164      -2.23885508       0.00000000
Si      -2.59307478       2.35183617       1.05674262       0.00000000
Si      -1.15031835       3.52781127      -0.34693215       0.00000000
Si       0.81308277      -3.22939476       1.70493354       0.00000000
Si       2.82217734       2.42711226       0.69644181       0.00000000
Si       1.97263755       0.02197521       3.28236650       0.00000000
