10
Lattice="16.28999089631971 0.0 0.0 0.0 16.28999089631971 0.0 0.0 0.0 34.36671206372826" Properties=species:S:1:pos:R:3:initial_magmoms:R:1 pbc="T T T"
Si      -0.47556374      -1.25455480       1.89477536       0.00000000
Si       1.98468238      -0.48536055      -1.11654073       0.00000000
Si      -0.19735824       2.22768031       0.66726445       0.00000000
Si      -1.59580165       0.19265206      -1.69819766       0.00000000
Si       2.92997479       1.73236657      -0.70503349       0.00000000
Si      -3.43965046       1.14007846      -0.52911019       0.00000000
Si       1.18026589       3.37021204      -0.83363380       0.00000000
Si      -2.45444755      -0.26881595       2.84106331       0.00000000
Si      -2.44268617       2.88591034       0.61478646       0.00000000
Si       1.66735318      -1.38826312      -3.29982480       0.00000000
