10
Lattice="16.28999089631971 0.0 0.0 0.0 16.28999089631971 0.0 0.0 0.0 34.36671206372826" Properties=species:S:1:pos:R:3:initial_magmoms:R:1 pbc="T T T"
Si      -1.34039007      -1.33988508       1.37217766       0.00000000
Si       1.37080350       1.37598372       1.36767562       0.00000000
Si       1.27594683      -1.49055129      -1.35883993       0.00000000
Si      -1.33328763       1.45819935      -1.36913964       0.00000000
Si       2.14667991       0.42731928      -2.54822336       0.00000000
Si       0.31441329       2.06506701      -2.94213384       0.00000000
Si      -2.70014895      -2.71148679      -0.02775457       0.00000000
Si      -2.69879688       0.01264104       2.73121005       0.00000000
Si       0.01707192      -2.70107748       2.73303149       0.00000000
Si       2.73813723      -2.70298341       0.01731052       0.00000000
