10
Lattice="16.28999089631971 0.0 0.0 0.0 16.28999089631971 0.0 0.0 0.0 34.36671206372826" Properties=species:S:1:pos:R:3:initial_magmoms:R:1 pbc="T T T"
Si      -1.35702216       1.35716127       1.35824195       0.00000000
Si       1.35742941       1.35812358      -1.35697038       0.00000000
Si       1.35751086      -1.35754344       1.35855125       0.00000000
Si      -1.35829278      -1.35962856      -1.35635178       0.00000000
Si       0.00011403      -2.71215468      -2.71538417       0.00000000
Si      -2.71177187      -0.00311139      -2.71696504       0.00000000
Si      -2.71460795       2.71442781       0.00027493       0.00000000
Si       2.71458189      -2.71479366       0.00068733       0.00000000
Si       2.71440270       0.00105885       2.71521234       0.00000000
Si      -0.00052128       2.71428120       2.71541854       0.00000000
