10
Lattice="16.28999089631971 0.0 0.0 0.0 16.28999089631971 0.0 0.0 0.0 34.36671206372826" Properties=species:S:1:pos:R:3:initial_magmoms:R:1 pbc="T T T"
Si      -1.34653140      -1.34936586      -1.40168150       0.00000000
Si       1.36511829       1.36586763      -1.39374279       0.00000000
Si      -1.46697966       1.31719311       1.49488408       0.00000000
Si       1.31558040      -1.53743391       1.48508956       0.00000000
Si       0.28209393       2.55632454       2.58324409       0.00000000
Si      -2.70405855      -2.70010008      -0.04660129       0.00000000
Si      -2.70044217       2.71158453      -0.03591323       0.00000000
Si       2.70821250      -2.72137482      -0.03240783       0.00000000
Si       2.73699693       2.72310156      -0.01220019       0.00000000
Si      -2.70726768       0.00721647      -2.75878935       0.00000000
