10
Lattice="16.28999089631971 0.0 0.0 0.0 16.28999089631971 0.0 0.0 0.0 34.36671206372826" Properties=species:S:1:pos:R:3:initial_magmoms:R:1 pbc="T T T"
Si      -0.34516881       1.60316406      -1.78624522       0.00000000
Si      -1.07254989      -2.04331986       0.89078567       0.00000000
Si       2.16815013      -0.25223436       1.21197714       0.00000000
Si      -1.47835008       1.55229039       1.28792762       0.00000000
Si       0.18052578       1.78725735       3.03496041       0.00000000
Si       2.60959284      -1.61979615      -1.74115607       0.00000000
Si      -2.09424240       0.36403263      -2.87460524       0.00000000
Si       2.64174930      -2.36294595       0.51340460       0.00000000
Si       0.39107403       3.54253973      -0.39288047       0.00000000
Si       1.22878728      -0.30571443       3.42375124       0.00000000
