10
Lattice="16.28999089631971 0.0 0.0 0.0 16.28999089631971 0.0 0.0 0.0 34.36671206372826" Properties=species:S:1:pos:R:3:initial_magmoms:R:1 pbc="T T T"
Si       1.74907359       1.23913143       1.08836001       0.00000000
Si      -1.23346251       1.39439142      -1.53079731       0.00000000
Si      -1.49307624      -1.34871426       1.35559571       0.00000000
Si       1.46697966      -1.31719311      -1.49488408       0.00000000
Si       2.09424240      -0.36403263       2.87460524       0.00000000
Si      -2.56093461       2.74240521      -0.17069955       0.00000000
Si      -2.69364924      -2.77342137      -0.14444337       0.00000000
Si      -2.59615359       0.04878855      -2.89481288       0.00000000
Si       0.12044826      -2.66655897      -2.89656558       0.00000000
Si      -2.89131210       0.04323366       2.71280667       0.00000000
