10
Lattice="16.28999089631971 0.0 0.0 0.0 16.28999089631971 0.0 0.0 0.0 34.36671206372826" Properties=species:S:1:pos:R:3:initial_magmoms:R:1 pbc="T T T"
Si      -1.05326253       1.66384431       1.31386763       0.00000000
Si       1.66648329      -1.06864029       1.32189913       0.00000000
Si       1.75440042       0.93276540      -1.38732450       0.00000000
Si      -1.85254767      -1.81949526      -0.04254945       0.00000000
Si      -2.41344495       0.31030821       2.69246843       0.00000000
Si       0.31255623      -2.41540627       2.69301830       0.00000000
Si      -2.41240239       3.04003980      -0.11910478       0.00000000
Si       3.07794663      -2.38087798      -0.18639484       0.00000000
Si       1.28951640      -3.56572787      -1.41014400       0.00000000
Si       0.31115529       3.02024745       2.68566382       0.00000000
