10
Lattice="16.28999089631971 0.0 0.0 0.0 16.28999089631971 0.0 0.0 0.0 34.36671206372826" Properties=species:S:1:pos:R:3:initial_magmoms:R:1 pbc="T T T"
Si       1.35671265       1.35791530       1.35707348       0.00000000
Si      -1.35749457       1.35716107      -1.35762335       0.00000000
Si      -1.35852084      -1.35674872       1.35703912       0.00000000
Si       1.35804843      -1.35756322      -1.35738278       0.00000000
Si       2.71143792       0.00098374      -2.71301287       0.00000000
Si      -2.71443528       2.71430866       0.00020620       0.00000000
Si      -2.71437012      -0.00358725       2.71493740       0.00000000
Si       2.71477737       2.71497655      -0.00034367       0.00000000
Si       2.71513575      -2.71500892       0.00058423       0.00000000
Si       0.00076563       2.71562815       2.71483430       0.00000000
