10
Lattice="16.28999089631971 0.0 0.0 0.0 16.28999089631971 0.0 0.0 0.0 34.36671206372826" Properties=species:S:1:pos:R:3:initial_magmoms:R:1 pbc="T T T"
Si       0.37812348       1.97972158       1.34910040       0.00000000
Si      -0.75255727      -1.92467280       1.28266951       0.00000000
Si       2.03009238      -0.44746302      -1.26954142       0.00000000
Si      -1.93652262       0.25335299      -1.46261372       0.00000000
Si      -2.90251052      -2.22729213       0.45370959       0.00000000
Si       1.35169533       1.04146157       3.34003388       0.00000000
Si      -2.60285597      -1.99849908      -1.83628319       0.00000000
Si       1.21251357       3.70665706      -0.13351475       0.00000000
Si       2.93004972      -0.58130166       2.58894897       0.00000000
Si      -1.46095888       1.50790780      -3.35738908       0.00000000
