10
Lattice="16.28999089631971 0.0 0.0 0.0 16.28999089631971 0.0 0.0 0.0 34.36671206372826" Properties=species:S:1:pos:R:3:initial_magmoms:R:1 pbc="T T T"
Si       0.80519841      -2.16064044      -0.54838993       0.00000000
Si       1.95712947       0.97192656       0.97412500       0.00000000
Si      -0.96951564       0.61045146      -2.10561526       0.00000000
Si      -1.67325993       0.53717904       1.75119116       0.00000000
Si       0.44171964      -3.07976785       1.55358245       0.00000000
Si       1.51480710       0.52228998       3.26837924       0.00000000
Si      -3.29421267       1.00403415      -1.42529145       0.00000000
Si      -0.42445224      -2.86869832      -2.40683966       0.00000000
Si       1.74474045       3.32454465       0.54375042       0.00000000
Si      -3.24004842       1.95841638       0.72637523       0.00000000
