10
Lattice="16.28999089631971 0.0 0.0 0.0 16.28999089631971 0.0 0.0 0.0 34.36671206372826" Properties=species:S:1:pos:R:3:initial_magmoms:R:1 pbc="T T T"
Si       0.36347877       0.91912741      -2.10197238       0.00000000
Si       1.43265663      -1.81295712       0.31462742       0.00000000
Si      -2.14330788      -0.97956072       0.16265774       0.00000000
Si       0.36129591       1.34079406       1.96316516       0.00000000
Si       0.45155880      -2.09892807       2.46749694       0.00000000
Si      -0.44171964       3.07976785      -1.55358245       0.00000000
Si      -1.92782376      -2.26085067       2.13066861       0.00000000
Si       1.47763332      -0.16142087       3.37690938       0.00000000
Si       3.63910455      -0.96509520       0.40294992       0.00000000
Si      -2.62229904      -2.13548283      -1.82872250       0.00000000
