10
Lattice="16.28999089631971 0.0 0.0 0.0 16.28999089631971 0.0 0.0 0.0 34.36671206372826" Properties=species:S:1:pos:R:3:initial_magmoms:R:1 pbc="T T T"
Si      -1.34728074      -1.35578412       1.35855125       0.00000000
Si       1.35681039      -1.35395964      -1.35968536       0.00000000
Si      -1.35744570       1.36098063      -1.35899802       0.00000000
Si       1.37487600       1.36718712       1.34339553       0.00000000
Si      -0.08187354       2.57852781       2.69194606       0.00000000
Si      -2.71274112      -2.71013472      -0.00144340       0.00000000
Si       2.71904535      -2.70809847      -0.00085917       0.00000000
Si       0.00127062      -2.71078632      -2.71662137       0.00000000
Si      -2.71375110       0.00394218      -2.71651827       0.00000000
Si       2.71612944       0.00384444      -2.71651827       0.00000000
