10
Lattice="16.28999089631971 0.0 0.0 0.0 16.28999089631971 0.0 0.0 0.0 34.36671206372826" Properties=species:S:1:pos:R:3:initial_magmoms:R:1 pbc="T T T"
Si       0.86213196       1.57131711      -1.55475092       0.00000000
Si      -1.69626141      -1.02043818      -1.43793840       0.00000000
Si       1.74671154      -1.78347807      -0.35775767       0.00000000
Si      -2.08243215       1.23057918       1.66953581       0.00000000
Si      -0.99385290      -0.09591552       3.40399037       0.00000000
Si       2.31888150       0.35997642      -2.90330146       0.00000000
Si      -0.40327524      -2.36299482      -2.88814573       0.00000000
Si      -2.49478092      -2.81489571      -0.09279017       0.00000000
Si       1.87405047       3.26247975      -0.26067166       0.00000000
Si       1.37122704       0.46551933       3.65139646       0.00000000
