10
Lattice="16.28999089631971 0.0 0.0 0.0 16.28999089631971 0.0 0.0 0.0 34.36671206372826" Properties=species:S:1:pos:R:3:initial_magmoms:R:1 pbc="T T T"
Si      -0.44232237      -0.44963658       2.29425425       0.00000000
Si       2.08046106      -0.91851165      -0.70300585       0.00000000
Si      -1.95712947      -0.97192656      -0.97412500       0.00000000
Si      -0.21238902       2.35261809      -0.43037458       0.00000000
Si      -2.51199945       0.60929487       2.59486004       0.00000000
Si      -1.15193106      -3.13256700      -1.52251493       0.00000000
Si      -3.63038940      -0.43474752       0.77706616       0.00000000
Si       3.72676104      -0.10103058       0.69785085       0.00000000
Si      -1.15411392      -2.71090035       2.54262261       0.00000000
Si       2.56932396      -0.18805176      -2.93842426       0.00000000
