10
Lattice="16.28999089631971 0.0 0.0 0.0 16.28999089631971 0.0 0.0 0.0 34.36671206372826" Properties=species:S:1:pos:R:3:initial_magmoms:R:1 pbc="T T T"
Si      -0.06252102       0.45414891       2.31635205       0.00000000
Si      -0.02187747      -2.36278305       0.00536121       0.00000000
Si      -1.54750113       1.26578187      -1.25981563       0.00000000
Si       2.08741689       0.55759041      -0.95900364       0.00000000
Si       1.78772976      -0.84590712       2.95577946       0.00000000
Si       1.88801100       2.92314276      -0.94161407       0.00000000
Si      -0.41098041       3.31095879      -1.45604967       0.00000000
Si      -1.81459197       0.12442302      -3.29927494       0.00000000
Si       2.27773296      -0.61945983      -3.01987341       0.00000000
Si       3.88557225      -0.35464959       0.27204704       0.00000000
