10
Lattice="16.28999089631971 0.0 0.0 0.0 16.28999089631971 0.0 0.0 0.0 34.36671206372826" Properties=species:S:1:pos:R:3:initial_magmoms:R:1 pbc="T T T"
Si      -0.87417027      -0.11941222      -2.16293897       0.00000000
Si      -1.98200593       0.48221658       1.18403699       0.00000000
Si       1.14065838      -2.04324560       0.50553462       0.00000000
Si       0.91106712       2.39998941       0.24067022       0.00000000
Si       0.83583990       1.62383607       2.44686972       0.00000000
Si       2.28608973       1.69839540      -1.49292517       0.00000000
Si       1.13868729       0.48115284      -3.20088298       0.00000000
Si      -2.50340208      -1.75457051       1.59977134       0.00000000
Si      -2.75640551       2.27025585      -0.33215446       0.00000000
Si      -0.36170316      -2.77963505       2.25105256       0.00000000
