10
Lattice="16.28999089631971 0.0 0.0 0.0 16.28999089631971 0.0 0.0 0.0 34.36671206372826" Properties=species:S:1:pos:R:3:initial_magmoms:R:1 pbc="T T T"
Si      -1.35925389       1.35519768      -1.36387810       0.00000000
Si       1.35531171      -1.36094805      -1.36580263       0.00000000
Si       1.35902583       1.36023129       1.38078653       0.00000000
Si      -1.37380086      -1.37411037       1.36257216       0.00000000
Si       2.70875007      -2.71148679      -0.00563614       0.00000000
Si       2.71086777       2.71437012      -0.00821365       0.00000000
Si      -2.71564074      -2.71412577      -0.00752631       0.00000000
Si      -2.71689507       2.71313208       0.00123720       0.00000000
Si       2.71270854      -0.00091224      -2.72153582       0.00000000
Si      -0.00156384       2.71366965      -2.72077975       0.00000000
