10
Lattice="16.28999089631971 0.0 0.0 0.0 16.28999089631971 0.0 0.0 0.0 34.36671206372826" Properties=species:S:1:pos:R:3:initial_magmoms:R:1 pbc="T T T"
Si       1.37502261      -0.70159401      -1.73359539       0.00000000
Si      -0.07522722      -0.77615334       2.20619950       0.00000000
Si      -1.64662578       1.40436090      -0.92563354       0.00000000
Si       2.22685929       1.03804767       0.49673673       0.00000000
Si      -0.91106712      -2.39998941      -0.24067022       0.00000000
Si       2.91028995      -1.39156185       1.06918338       0.00000000
Si      -2.89307305      -1.91777283       0.94336677       0.00000000
Si       0.62268525       1.04907600       3.41302336       0.00000000
Si      -3.66747263      -0.12973356      -0.57282468       0.00000000
Si       1.54287477       2.68894143       2.05483570       0.00000000
