10
Lattice="16.28999089631971 0.0 0.0 0.0 16.28999089631971 0.0 0.0 0.0 34.36671206372826" Properties=species:S:1:pos:R:3:initial_magmoms:R:1 pbc="T T T"
Si       1.79815536      -0.91224000       1.23105068       0.00000000
Si      -2.08741689      -0.55759041       0.95900364       0.00000000
Si      -0.19940589       2.36555235       0.01738957       0.00000000
Si       0.19031607      -1.17705024      -2.06086977       0.00000000
Si      -3.63491802       0.70819146      -0.30081200       0.00000000
Si      -2.10929436      -2.92037346       0.96436485       0.00000000
Si      -2.49839730       2.75336838      -0.49704603       0.00000000
Si      -1.75989015      -0.56488833      -3.30851959       0.00000000
Si       1.97907210      -0.11515401      -3.24174503       0.00000000
Si       0.97386507      -2.77404039       2.42745970       0.00000000
