10
Lattice="16.28999089631971 0.0 0.0 0.0 16.28999089631971 0.0 0.0 0.0 34.36671206372826" Properties=species:S:1:pos:R:3:initial_magmoms:R:1 pbc="T T T"
Si       1.35764118      -1.35793440      -1.36511530       0.00000000
Si      -1.35832536       1.35879777      -1.36556207       0.00000000
Si       1.37187864       1.35723393       1.38154260       0.00000000
Si      -1.36511829      -1.36586763       1.39374279       0.00000000
Si      -2.71417464       2.71195924      -0.00766378       0.00000000
Si       2.71533123       2.71155440      -0.00505191       0.00000000
Si      -2.71164969      -2.71523349      -0.00793871       0.00000000
Si       2.71689507      -2.71313208      -0.00123720       0.00000000
Si      -0.00024435      -2.71513575      -2.72205132       0.00000000
Si       2.71533123       0.00053757      -2.72201695       0.00000000
