10
Lattice="16.28999089631971 0.0 0.0 0.0 16.28999089631971 0.0 0.0 0.0 34.36671206372826" Properties=species:S:1:pos:R:3:initial_magmoms:R:1 pbc="T T T"
Si       1.29845961       1.21312933      -1.61829501       0.00000000
Si      -0.82619622       0.87506296       2.10358762       0.00000000
Si      -1.51397631      -1.43085396      -1.34875674       0.00000000
Si       2.08602477      -0.74628400       1.16310765       0.00000000
Si      -1.82252520       2.84297641       1.31817034       0.00000000
Si       2.23672844       2.88520009      -0.37143563       0.00000000
Si       2.69901747      -2.66425623      -0.17042462       0.00000000
Si       3.66129872       1.20306211       0.82074628       0.00000000
Si      -0.01234782       2.63378023      -2.97870207       0.00000000
Si      -2.71883358      -0.08134249      -2.96313394       0.00000000
