10
Lattice="16.28999089631971 0.0 0.0 0.0 16.28999089631971 0.0 0.0 0.0 34.36671206372826" Properties=species:S:1:pos:R:3:initial_magmoms:R:1 pbc="T T T"
Si      -0.99632898       1.96791345      -0.78541728       0.00000000
Si       0.82619622      -0.87506296      -2.10358762       0.00000000
Si      -1.37285604      -1.29592814       1.62241902       0.00000000
Si       1.82232972       1.11606048       1.58650578       0.00000000
Si      -1.61477883       2.54011599       1.38576970       0.00000000
Si       2.91222099      -1.62134696      -0.94047997       0.00000000
Si      -2.09666961       0.65681280       2.85941514       0.00000000
Si       1.43961246      -0.55224729       3.30058087       0.00000000
Si       0.59704479       3.09747834       2.04832592       0.00000000
Si       0.35580618      -2.58519761       2.72335725       0.00000000
