10
Lattice="16.28999089631971 0.0 0.0 0.0 16.28999089631971 0.0 0.0 0.0 34.36671206372826" Properties=species:S:1:pos:R:3:initial_magmoms:R:1 pbc="T T T"
Si       0.99696429       1.74583188       1.14389665       0.00000000
Si      -1.69243326       0.26163369      -1.61025319       0.00000000
Si      -0.57630762      -1.61157459       1.62626809       0.00000000
Si       1.84384881      -0.94742640      -1.16908746       0.00000000
Si      -0.96861969      -1.69110725      -2.84724932       0.00000000
Si      -0.53900352      -3.47533208       0.17523596       0.00000000
Si       0.76004253      -2.98037672      -1.74631108       0.00000000
Si       0.50810139       1.01537199       3.37931505       0.00000000
Si       3.24229222       1.08760185       1.19637465       0.00000000
Si       3.43965046      -1.14007846       0.52911019       0.00000000
