10
Lattice="16.28999089631971 0.0 0.0 0.0 16.28999089631971 0.0 0.0 0.0 34.36671206372826" Properties=species:S:1:pos:R:3:initial_magmoms:R:1 pbc="T T T"
Si       1.35711664      -1.35783666       1.35686728       0.00000000
Si      -1.35753468       1.35731538       1.35703912       0.00000000
Si       1.35682342       1.35822762      -1.35717658       0.00000000
Si      -1.35809831      -1.35795069      -1.35672982       0.00000000
Si      -0.00130157      -2.71150308      -2.71091650       0.00000000
Si       2.71415509      -0.00037467       2.71435317       0.00000000
Si       0.00020200       2.71469592       2.71438754       0.00000000
Si      -0.00141886      -2.71427238       2.71497177       0.00000000
Si       2.71523023      -2.71448415       0.00024057       0.00000000
Si       0.00066789       2.71349046      -2.71634644       0.00000000
