10
Lattice="16.28999089631971 0.0 0.0 0.0 16.28999089631971 0.0 0.0 0.0 34.36671206372826" Properties=species:S:1:pos:R:3:initial_magmoms:R:1 pbc="T T T"
Si       1.78965198       0.78522687       1.34660336       0.00000000
Si      -0.77455692      -1.88613439       1.22673907       0.00000000
Si       0.89764416       0.76352859      -2.18338717       0.00000000
Si      -2.09810313       1.42750899       0.02580942       0.00000000
Si      -2.03750433       1.28643759      -2.30277720       0.00000000
Si       0.51103359       2.15528103       2.74838108       0.00000000
Si      -2.18602026      -0.57389670       2.73503305       0.00000000
Si      -0.96115887       3.36538368       1.31256654       0.00000000
Si       2.66773185       2.64409506       0.21879824       0.00000000
Si       3.01487175      -0.38854908      -2.46852794       0.00000000
