10
Lattice="16.28999089631971 0.0 0.0 0.0 16.28999089631971 0.0 0.0 0.0 34.36671206372826" Properties=species:S:1:pos:R:3:initial_magmoms:R:1 pbc="T T T"
Si       2.11722759      -1.15207767      -0.28514077       0.00000000
Si       1.01573037       2.20436280       0.19076973       0.00000000
Si      -0.89764416      -0.76352859       2.18338717       0.00000000
Si      -1.24118397       1.35485559      -2.24012664       0.00000000
Si      -2.93514849       0.52290900      -0.11939002       0.00000000
Si       1.77008769       1.88056647       2.40218541       0.00000000
Si       0.89200782       0.02169828       3.52999053       0.00000000
Si      -2.99574729       0.66398040       2.20919659       0.00000000
Si      -2.51473617       2.72539845      -0.75280325       0.00000000
Si       2.07291879      -2.22133698      -2.45783989       0.00000000
