10
Lattice="16.28999089631971 0.0 0.0 0.0 16.28999089631971 0.0 0.0 0.0 34.36671206372826" Properties=species:S:1:pos:R:3:initial_magmoms:R:1 pbc="T T T"
Si      -1.84722084      -1.02512970       1.01302779       0.00000000
Si       1.14222222       1.85101641       0.96723069       0.00000000
Si      -0.76149234       0.26295318      -2.24174020       0.00000000
Si       1.78166988      -1.74641832      -0.08074051       0.00000000
Si       1.02731256      -1.42262199      -2.29215620       0.00000000
Si      -0.37502838      -2.23523235       2.44884233       0.00000000
Si       2.37716712       0.48224916       2.43624005       0.00000000
Si       0.90359001      -3.60528651       1.04706460       0.00000000
Si       3.69215686      -0.97264332       1.01089706       0.00000000
Si      -3.08830707       0.47436480       2.41854462       0.00000000
