10
Lattice="16.28999089631971 0.0 0.0 0.0 16.28999089631971 0.0 0.0 0.0 34.36671206372826" Properties=species:S:1:pos:R:3:initial_magmoms:R:1 pbc="T T T"
Si      -1.36383138      -1.35042471      -1.38456687       0.00000000
Si       1.35088083       1.36533006      -1.38614774       0.00000000
Si      -1.56802653       1.25665947       1.30449239       0.00000000
Si       1.48037004      -1.36632375       1.45092903       0.00000000
Si       2.69472438      -2.70442670      -0.04017471       0.00000000
Si       2.70638802       2.70777267      -0.01481206       0.00000000
Si      -2.71327869      -2.71585088      -0.02158231       0.00000000
Si       0.00623907      -2.69415260       2.73854735       0.00000000
Si       2.70715365       0.00619020      -2.74521449       0.00000000
Si      -0.00807984      -2.70848780      -2.74542069       0.00000000
