10
Lattice="16.28999089631971 0.0 0.0 0.0 16.28999089631971 0.0 0.0 0.0 34.36671206372826" Properties=species:S:1:pos:R:3:initial_magmoms:R:1 pbc="T T T"
Si      -1.33706691      -1.35687555       1.34394539       0.00000000
Si      -1.35343836       1.35053874      -1.36016649       0.00000000
Si       1.36171368      -1.36401057      -1.35803575       0.00000000
Si       1.35702216       1.35233064       1.39491126       0.00000000
Si       2.48246568      -0.26860581       2.82711041       0.00000000
Si       0.01215234      -2.65996152       2.74280882       0.00000000
Si      -2.70875007       2.71148679       0.00563614       0.00000000
Si       0.00395847       2.71057455      -2.71589967       0.00000000
Si      -2.71127502      -0.00456120      -2.71620897       0.00000000
Si       2.72136796       2.71107954       0.00158087       0.00000000
