10
Lattice="16.28999089631971 0.0 0.0 0.0 16.28999089631971 0.0 0.0 0.0 34.36671206372826" Properties=species:S:1:pos:R:3:initial_magmoms:R:1 pbc="T T T"
Si      -1.64629998      -0.81748107      -1.40085670       0.00000000
Si       1.14716365      -1.47781251       1.38748804       0.00000000
Si       1.79877994       0.10169847      -1.53306552       0.00000000
Si      -0.47024343       2.19276432       0.79775493       0.00000000
Si       2.28446792       0.26427267       2.52128087       0.00000000
Si       1.93993279       2.40702669      -1.86906905       0.00000000
Si       1.23318136       2.44946214       2.37577213       0.00000000
Si      -0.05450634       3.54369402      -1.10578395       0.00000000
Si      -1.16919846      -3.24174747      -1.40999825       0.00000000
Si      -3.72676104       0.10103058      -0.69785085       0.00000000
