10
Lattice="16.28999089631971 0.0 0.0 0.0 16.28999089631971 0.0 0.0 0.0 34.36671206372826" Properties=species:S:1:pos:R:3:initial_magmoms:R:1 pbc="T T T"
Si       1.35343836      -1.35053874       1.36016649       0.00000000
Si      -1.35783666      -1.35509994      -1.35604248       0.00000000
Si       1.35739683       1.36003581      -1.35573318       0.00000000
Si      -1.35531171       1.36094805       1.36580263       0.00000000
Si       0.01637145      -2.70741429       2.70411188       0.00000000
Si       0.00065160      -2.71379997      -2.71256610       0.00000000
Si      -2.71494027       0.00172674      -2.71321907       0.00000000
Si       2.71523349       0.00211770      -2.71318470       0.00000000
Si      -2.71595025      -2.71362078       0.00171834       0.00000000
Si       2.71366965       2.71591767       0.00189017       0.00000000
