10
Lattice="16.28999089631971 0.0 0.0 0.0 16.28999089631971 0.0 0.0 0.0 34.36671206372826" Properties=species:S:1:pos:R:3:initial_magmoms:R:1 pbc="T T T"
Si      -1.96560027       0.93462246      -0.78775421       0.00000000
Si      -0.26373510       0.34468011       2.36185361       0.00000000
Si       0.09233172      -2.25847818      -1.02948980       0.00000000
Si       2.08867352       1.43770653      -0.00594544       0.00000000
Si       3.02118317      -0.54928251       0.91082148       0.00000000
Si       0.90292067       2.72419299       1.70586144       0.00000000
Si       2.37852149      -2.40668460      -0.49852380       0.00000000
Si       1.98540144      -0.31216527       3.06595920       0.00000000
Si      -1.67226624      -1.57884309       2.89996788       0.00000000
Si       0.92815698       3.25295010      -1.76387248       0.00000000
