10
Lattice="16.28999089631971 0.0 0.0 0.0 16.28999089631971 0.0 0.0 0.0 34.36671206372826" Properties=species:S:1:pos:R:3:initial_magmoms:R:1 pbc="T T T"
Si      -1.17333612       1.72988397       1.05285918       0.00000000
Si       2.17896669       0.76686804      -0.48292131       0.00000000
Si      -1.19941641      -0.83465073      -1.89477536       0.00000000
Si       0.18239913      -1.13479398       2.28215716       0.00000000
Si       1.68837705      -2.71114470       1.01234080       0.00000000
Si       0.04683375       0.22867902      -3.51970315       0.00000000
Si      -2.33908110      -1.16937765       2.43003720       0.00000000
Si       2.26694898       0.57373380      -2.82631998       0.00000000
Si      -3.31271811       0.77809185       1.43130562       0.00000000
Si      -1.66115646       3.40949700      -0.49570573       0.00000000
