10
Lattice="16.28999089631971 0.0 0.0 0.0 16.28999089631971 0.0 0.0 0.0 34.36671206372826" Properties=species:S:1:pos:R:3:initial_magmoms:R:1 pbc="T T T"
Si      -1.35627282      -1.35588186      -1.35762335       0.00000000
Si      -1.35811359       1.35940050       1.35569882       0.00000000
Si       1.35914796       1.35826020      -1.35748589       0.00000000
Si       1.36113667      -1.35537687       1.35985719       0.00000000
Si      -2.71049310       2.71754667      -0.00020620       0.00000000
Si      -2.71321353       0.00135207      -2.71507487       0.00000000
Si       0.00156384      -2.71379997      -2.71507487       0.00000000
Si      -2.71366965      -2.71591767      -0.00189017       0.00000000
Si       0.00179190       2.71575477      -2.71493740       0.00000000
Si       2.71684687      -2.71417464      -0.00044677       0.00000000
