10
Lattice="16.28999089631971 0.0 0.0 0.0 16.28999089631971 0.0 0.0 0.0 34.36671206372826" Properties=species:S:1:pos:R:3:initial_magmoms:R:1 pbc="T T T"
Si      -1.35237951       1.35814617      -1.35590502       0.00000000
Si       1.35811359      -1.35940050      -1.35569882       0.00000000
Si       1.33014366       1.39018860       1.36937677       0.00000000
Si      -1.35184194      -1.35413883       1.38900018       0.00000000
Si      -2.71243161       2.71031636       0.00439894       0.00000000
Si      -2.71243161      -0.00070047      -2.71256610       0.00000000
Si      -2.71086777      -2.71437012       0.00821365       0.00000000
Si       0.00239463       2.71392186      -2.71301287       0.00000000
Si       0.00184077      -2.71528236      -2.71332217       0.00000000
Si       2.71459276       2.71422351       0.00278371       0.00000000
