10
Lattice="16.28999089631971 0.0 0.0 0.0 16.28999089631971 0.0 0.0 0.0 34.36671206372826" Properties=species:S:1:pos:R:3:initial_magmoms:R:1 pbc="T T T"
Si       0.31881159      -2.18709540      -0.84569652       0.00000000
Si      -1.23847983      -0.84341475       1.87095922       0.00000000
Si       2.05273548       1.24326909       0.25843782       0.00000000
Si      -1.45888353       1.40139612      -1.49505591       0.00000000
Si       0.54623628      -1.11643515       3.38206439       0.00000000
Si       3.18733253      -0.39752487       1.64791913       0.00000000
Si       3.21256884       0.13123224      -1.82181479       0.00000000
Si       1.22595282       3.48076575       0.97037902       0.00000000
Si      -2.17916217       3.15833778      -0.10131312       0.00000000
Si       2.28441186      -3.12171786      -0.05794231       0.00000000
