10
Lattice="16.28999089631971 0.0 0.0 0.0 16.28999089631971 0.0 0.0 0.0 34.36671206372826" Properties=species:S:1:pos:R:3:initial_magmoms:R:1 pbc="T T T"
Si       0.29965455       0.22879305      -2.28999277       0.00000000
Si       2.14995324       0.30261933       0.82895992       0.00000000
Si      -0.70620408      -2.17722366       0.45845220       0.00000000
Si      -1.44676377       1.79237241       0.72451943       0.00000000
Si       0.96598790       2.48064513      -1.91632330       0.00000000
Si      -1.90531098      -0.42041232      -2.87144350       0.00000000
Si      -0.79418637      -1.98408942       2.80185087       0.00000000
Si       1.77276155       0.55685736       3.15318196       0.00000000
Si       2.90251052       2.22729213      -0.45370959       0.00000000
Si      -1.01289591       3.46638398      -0.97003536       0.00000000
