10
Lattice="16.28999089631971 0.0 0.0 0.0 16.28999089631971 0.0 0.0 0.0 34.36671206372826" Properties=species:S:1:pos:R:3:initial_magmoms:R:1 pbc="T T T"
Si      -2.28618977       0.14820642      -0.53096600       0.00000000
Si       0.64266168       1.85740209       1.40934528       0.00000000
Si       0.11913366      -2.33585568       0.61808566       0.00000000
Si      -2.37852149       2.40668460       0.49852380       0.00000000
Si       0.42289329      -2.07031239       2.96863261       0.00000000
Si      -3.19574192      -1.59814674       0.85181380       0.00000000
Si       2.99769069       1.67775597       1.49385307       0.00000000
Si       2.79621597      -1.57814262      -2.09076883       0.00000000
Si       3.75094029       0.50184603      -0.78335527       0.00000000
Si      -0.28984797       3.84439113       0.49257836       0.00000000
