10
Lattice="16.28999089631971 0.0 0.0 0.0 16.28999089631971 0.0 0.0 0.0 34.36671206372826" Properties=species:S:1:pos:R:3:initial_magmoms:R:1 pbc="T T T"
Si       0.37190722      -0.77524110      -2.22284018       0.00000000
Si       1.01094600       2.14700571       0.62568071       0.00000000
Si       2.14075198      -1.05104709       0.65520173       0.00000000
Si      -2.30235271       0.89505405      -0.74146223       0.00000000
Si      -1.75996087      -1.51853751       1.19238811       0.00000000
Si       1.36238320      -3.34088352       0.36366875       0.00000000
Si       2.15627635       0.55366452      -2.96100320       0.00000000
Si       0.23897919       3.46113630      -1.34081802       0.00000000
Si       3.45921571      -0.51122907      -1.28923356       0.00000000
Si      -3.54876577       0.16703766       1.24280410       0.00000000
