10
Lattice="16.28999089631971 0.0 0.0 0.0 16.28999089631971 0.0 0.0 0.0 34.36671206372826" Properties=species:S:1:pos:R:3:initial_magmoms:R:1 pbc="T T T"
Si       1.31846373       0.53981802      -1.94443529       0.00000000
Si      -0.77836878      -2.28983643      -0.29153298       0.00000000
Si      -2.14075198       1.05104709      -0.65520173       0.00000000
Si       0.54366246       0.61571313       2.37003289       0.00000000
Si      -1.76884476       0.27580599      -2.87804191       0.00000000
Si      -1.12980598       3.19805280      -0.02952102       0.00000000
Si      -0.71755821      -1.90938348      -2.73253317       0.00000000
Si       1.29691206       3.28250016      -0.88037255       0.00000000
Si       2.41113177      -1.00525590       2.68893626       0.00000000
Si       1.56757041      -1.43619156      -3.17572654       0.00000000
