10
Lattice="16.28999089631971 0.0 0.0 0.0 16.28999089631971 0.0 0.0 0.0 34.36671206372826" Properties=species:S:1:pos:R:3:initial_magmoms:R:1 pbc="T T T"
Si       0.87290291       1.93723938      -1.07580310       0.00000000
Si      -1.10923334      -1.46847834      -1.55985580       0.00000000
Si      -1.30760223       1.37420811       1.53162899       0.00000000
Si       1.41783599      -1.33872849       1.50975800       0.00000000
Si      -1.26879601       2.96230392      -1.72708431       0.00000000
Si      -2.50838700      -2.67278175       0.07628727       0.00000000
Si      -2.78984562       2.57287518       0.07397783       0.00000000
Si      -2.65219512       0.03402981       2.91030883       0.00000000
Si       0.06340720      -2.68625358       2.90951840       0.00000000
Si       2.78469731       2.83095765       0.16837293       0.00000000
