10
Lattice="16.28999089631971 0.0 0.0 0.0 16.28999089631971 0.0 0.0 0.0 34.36671206372826" Properties=species:S:1:pos:R:3:initial_magmoms:R:1 pbc="T T T"
Si       1.35752715       1.35073422      -1.35508021       0.00000000
Si       1.24607097      -1.46952090       1.34903167       0.00000000
Si      -1.36080144      -1.36378251      -1.35315568       0.00000000
Si      -1.45657035       1.24387182       1.39704199       0.00000000
Si      -0.57893031      -2.42279541       2.47736019       0.00000000
Si      -2.38490487      -0.70516152       2.48406170       0.00000000
Si       2.70405855       2.70010008       0.04660129       0.00000000
Si      -0.00320913       2.70731655      -2.71218807       0.00000000
Si       2.70974376      -0.00773775      -2.71270357       0.00000000
Si      -2.71809076      -0.00636939      -2.71273793       0.00000000
