10
Lattice="16.28999089631971 0.0 0.0 0.0 16.28999089631971 0.0 0.0 0.0 34.36671206372826" Properties=species:S:1:pos:R:3:initial_magmoms:R:1 pbc="T T T"
Si       1.33599604       1.35755973       1.37893073       0.00000000
Si       1.35571020      -1.35879777      -1.36030396       0.00000000
Si      -1.36113667       1.35537687      -1.35985719       0.00000000
Si      -1.36434580      -1.35874890       1.39333039       0.00000000
Si       2.61723060      -0.10855656       2.74947597       0.00000000
Si       2.71472625       2.71365336      -0.00089354       0.00000000
Si       2.71299951      -2.71621089      -0.00072170       0.00000000
Si       2.71337418      -0.00112401      -2.71734307       0.00000000
Si      -0.00198872       2.71363707      -2.71734307       0.00000000
Si      -2.72136796      -2.71107954      -0.00158087       0.00000000
