10
Lattice="16.28999089631971 0.0 0.0 0.0 16.28999089631971 0.0 0.0 0.0 34.36671206372826" Properties=species:S:1:pos:R:3:initial_magmoms:R:1 pbc="T T T"
Si       2.00423852       0.47868165       1.11279476       0.00000000
Si      -0.30400072       2.09538270      -1.11093896       0.00000000
Si      -1.21917618      -0.43556202       2.05877340       0.00000000
Si      -0.30615426      -1.62795744      -1.78225868       0.00000000
Si      -2.01016224      -2.64637566       1.60080234       0.00000000
Si      -2.55529080      -0.97111206      -2.48636427       0.00000000
Si      -1.38863502       1.40840082      -3.14235644       0.00000000
Si       1.40483168       1.75109355       3.00299935       0.00000000
Si       1.91293307       2.61659754      -1.92110028       0.00000000
Si       3.44699495       1.65465675      -0.29088001       0.00000000
