10
Lattice="16.28999089631971 0.0 0.0 0.0 16.28999089631971 0.0 0.0 0.0 34.36671206372826" Properties=species:S:1:pos:R:3:initial_magmoms:R:1 pbc="T T T"
Si       0.54250587       2.18492883      -0.65410200       0.00000000
Si       1.82633706      -1.32190092      -0.76819954       0.00000000
Si      -2.42671804      -0.08444736       0.85085153       0.00000000
Si       0.02155167      -2.74268214      -1.06406273       0.00000000
Si      -1.28138769      -1.67778855      -2.73583238       0.00000000
Si      -1.70807166       2.96842896      -0.47501696       0.00000000
Si      -3.19868485       1.22968323      -1.11564720       0.00000000
Si      -1.29691206      -3.28250016       0.88037255       0.00000000
Si       2.07686097      -0.43147323      -3.04396449       0.00000000
Si       2.11025547       1.87641252      -2.43907565       0.00000000
