10
Lattice="16.28999089631971 0.0 0.0 0.0 16.28999089631971 0.0 0.0 0.0 34.5300574570662" Properties=species:S:1:pos:R:3:initial_magmoms:R:1 pbc="T T T"
Si      -1.35386190       1.35179307      -1.35447679       0.00000000
Si       1.36000323       1.35395964       1.35699749       0.00000000
Si      -1.35500220      -1.36016776       1.35713561       0.00000000
Si       1.36039419      -1.36089429      -1.36196982       0.00000000
Si      -2.69451261      -0.01339038      -2.71417453       0.00000000
Si      -0.02720430       2.71296918      -2.69632939       0.00000000
Si      -2.71213839       2.71000440      -0.00162291       0.00000000
Si       0.00187335       2.71197549       2.71420215       0.00000000
Si      -2.71262709      -0.00278559       2.71402950       0.00000000
Si       2.71738377       2.71223613      -0.00041436       0.00000000
