10
Lattice="16.28999089631971 0.0 0.0 0.0 16.28999089631971 0.0 0.0 0.0 34.5300574570662" Properties=species:S:1:pos:R:3:initial_magmoms:R:1 pbc="T T T"
Si      -1.35762489       1.35738217       1.35689390       0.00000000
Si       1.35739683      -1.35745573       1.35730826       0.00000000
Si       1.35500220       1.36016776      -1.35713561       0.00000000
Si      -1.35886293      -1.35791322      -1.35748091       0.00000000
Si       0.00114030       2.71196083      -2.71161240       0.00000000
Si      -0.00174303       2.71230292       2.71530712       0.00000000
Si       2.71412577      -0.00163714       2.71496181       0.00000000
Si       2.71500543       2.71412740      -0.00013812       0.00000000
Si      -2.71526607       2.71477900      -0.00110496       0.00000000
Si      -2.71534752       0.00044798       2.71475463       0.00000000
