10
Lattice="16.28999089631971 0.0 0.0 0.0 16.28999089631971 0.0 0.0 0.0 34.5300574570662" Properties=species:S:1:pos:R:3:initial_magmoms:R:1 pbc="T T T"
Si       1.26773667      -1.36798533       1.43658931       0.00000000
Si       1.35694071       1.35441576      -1.37474595       0.00000000
Si      -1.36168110      -1.35915615      -1.37029157       0.00000000
Si      -1.32281316       1.32844950       1.48009721       0.00000000
Si       2.71632492       2.69014689       0.00511045       0.00000000
Si       2.70586674      -2.71285841       0.00590464       0.00000000
Si      -2.71531331       2.71557558       0.01819735       0.00000000
Si      -2.72548479      -2.71282257       0.00887423       0.00000000
Si      -0.00205254       2.70989037      -2.73088018       0.00000000
Si       2.71285515      -0.00677664      -2.73012052       0.00000000
