10
Lattice="16.28999089631971 0.0 0.0 0.0 16.28999089631971 0.0 0.0 0.0 34.5300574570662" Properties=species:S:1:pos:R:3:initial_magmoms:R:1 pbc="T T T"
Si      -1.13230161      -1.90592904       0.75482748       0.00000000
Si       0.68238810       1.34308606       1.79756674       0.00000000
Si      -0.91742022       0.72690053      -2.16472504       0.00000000
Si       2.41026840      -1.35637870      -2.06227430       0.00000000
Si      -1.40462154       2.73104294       1.74525367       0.00000000
Si       0.79576650      -0.25376399      -3.62282659       0.00000000
Si       0.46929861      -3.39481875       1.73237395       0.00000000
Si       2.09939004      -3.24350094      -0.04875647       0.00000000
Si      -1.88772755      -3.04868883      -1.45668582       0.00000000
Si      -2.94460646      -0.58478819      -2.51713901       0.00000000
