10
Lattice="16.28999089631971 0.0 0.0 0.0 16.28999089631971 0.0 0.0 0.0 34.5300574570662" Properties=species:S:1:pos:R:3:initial_magmoms:R:1 pbc="T T T"
Si      -1.35588186      -1.35492075      -1.35841322       0.00000000
Si       1.36098063      -1.35317772       1.35786074       0.00000000
Si      -1.35591444       1.36119240       1.35537457       0.00000000
Si       1.35861858       1.35984033      -1.35824057       0.00000000
Si      -2.71360449      -2.71185494      -0.00055248       0.00000000
Si       0.00174303      -2.71230292      -2.71530712       0.00000000
Si       2.71586880      -2.71394006      -0.00034530       0.00000000
Si      -2.71352304       0.00247608      -2.71641208       0.00000000
Si       2.71378368       2.71733490      -0.00037983       0.00000000
Si      -2.71490769       2.71666701      -0.00075966       0.00000000
