10
Lattice="16.28999089631971 0.0 0.0 0.0 16.28999089631971 0.0 0.0 0.0 34.5300574570662" Properties=species:S:1:pos:R:3:initial_magmoms:R:1 pbc="T T T"
Si       0.27868932      -2.32407801      -0.28849879       0.00000000
Si      -1.93442121       0.73524915       1.15641227       0.00000000
Si      -0.13061322       0.55289889      -2.30495168       0.00000000
Si       2.10417930       0.82230291       0.84018583       0.00000000
Si       2.62568736      -2.43072864      -0.31646815       0.00000000
Si       3.07592667      -1.17574704       1.64926006       0.00000000
Si       1.52096472       2.33823402      -2.56900318       0.00000000
Si       3.26974509       1.83443319      -0.98055059       0.00000000
Si      -0.66274236      -1.38292326      -3.64927663       0.00000000
Si      -2.20783257       1.49447718      -2.94738376       0.00000000
