10
Lattice="16.28999089631971 0.0 0.0 0.0 16.28999089631971 0.0 0.0 0.0 34.5300574570662" Properties=species:S:1:pos:R:3:initial_magmoms:R:1 pbc="T T T"
Si      -2.05631928      -0.64205406      -0.95858946       0.00000000
Si       1.93442121      -0.73524915      -1.15641227       0.00000000
Si      -0.20463498      -0.99401580       2.20136145       0.00000000
Si      -0.10963170       2.43434502       0.17271944       0.00000000
Si      -2.28934773       0.01023012       2.67141939       0.00000000
Si      -3.55209966       0.18120996       0.65776343       0.00000000
Si       0.16501770       2.67713118       2.48264346       0.00000000
Si      -2.42196462      -2.96087040      -0.74129169       0.00000000
Si       1.80380799      -0.18235026      -3.46136395       0.00000000
Si      -2.33717517       0.01031157      -3.21043389       0.00000000
