10
Lattice="16.28999089631971 0.0 0.0 0.0 16.28999089631971 0.0 0.0 0.0 34.5300574570662" Properties=species:S:1:pos:R:3:initial_magmoms:R:1 pbc="T T T"
Si      -2.08471275       1.00424592       0.47005793       0.00000000
Si       1.93730454       0.34790553       1.33752252       0.00000000
Si      -0.71939898      -2.19761874       0.56960815       0.00000000
Si       0.20463498       0.99401580      -2.20136145       0.00000000
Si      -0.69318837      -3.15320643      -1.53620858       0.00000000
Si      -1.85168430       0.35196174      -3.15995091       0.00000000
Si      -1.52137197       2.99349927       1.50796298       0.00000000
Si       0.36965268       3.67114698       0.28128201       0.00000000
Si       2.41315173       2.65202829       0.93614491       0.00000000
Si       0.92351268       0.44046531       3.57976759       0.00000000
