10
Lattice="16.28999089631971 0.0 0.0 0.0 16.28999089631971 0.0 0.0 0.0 34.5300574570662" Properties=species:S:1:pos:R:3:initial_magmoms:R:1 pbc="T T T"
Si      -1.93730454      -0.34790553      -1.33752252       0.00000000
Si       0.47584719       2.30412276      -0.40137761       0.00000000
Si      -1.01379186       0.09255978       2.24224506       0.00000000
Si       1.69974747      -1.67620842      -1.17989272       0.00000000
Si       2.14120647       2.28253851      -2.06458782       0.00000000
Si      -2.65670352      -2.54552427      -0.76791438       0.00000000
Si      -1.56765186       3.32324145      -1.05624052       0.00000000
Si      -1.59791868      -2.14247709       2.95622346       0.00000000
Si       0.59108265       1.08069489       3.79399218       0.00000000
Si      -1.73266956       0.64611027      -3.53888398       0.00000000
