10
Lattice="16.28999089631971 0.0 0.0 0.0 16.28999089631971 0.0 0.0 0.0 34.5300574570662" Properties=species:S:1:pos:R:3:initial_magmoms:R:1 pbc="T T T"
Si      -1.18990305       1.46984670      -1.32856197       0.00000000
Si       1.33903800       1.36300059       1.34337537       0.00000000
Si      -1.38411243      -1.34845362       1.34144169       0.00000000
Si       1.26403884      -1.43705493      -1.40399983       0.00000000
Si      -2.31715476      -0.16439868      -2.76230052       0.00000000
Si      -0.46810944      -1.81328877      -3.12928617       0.00000000
Si       2.66372451      -2.70703962       0.00480313       0.00000000
Si       2.66752008       2.71337643      -0.02531745       0.00000000
Si       2.69202024       0.00804726       2.70171953       0.00000000
Si      -0.02120958      -2.71000440       2.69950961       0.00000000
