10
Lattice="16.28999089631971 0.0 0.0 0.0 16.28999089631971 0.0 0.0 0.0 34.5300574570662" Properties=species:S:1:pos:R:3:initial_magmoms:R:1 pbc="T T T"
Si       1.34609157       1.35278676      -1.35830963       0.00000000
Si       1.31136129      -1.41369507       1.33179053       0.00000000
Si      -1.27483911       1.29375180       1.49522138       0.00000000
Si      -1.37331216      -1.35684297      -1.35810245       0.00000000
Si      -0.34249725      -2.42396829       2.67069426       0.00000000
Si      -2.00565738      -0.51598575       3.03305288       0.00000000
Si       2.67367770      -2.70920619      -0.02845278       0.00000000
Si      -2.70982521       2.67731037       0.00859799       0.00000000
Si       2.69625564       2.71990872       0.00490327       0.00000000
Si       2.70205488      -0.00043983      -2.71727533       0.00000000
