10
Lattice="16.28999089631971 0.0 0.0 0.0 16.28999089631971 0.0 0.0 0.0 34.5300574570662" Properties=species:S:1:pos:R:3:initial_magmoms:R:1 pbc="T T T"
Si      -1.33781625      -1.33718094       1.39045713       0.00000000
Si       1.37691225       1.37366632       1.39111320       0.00000000
Si       1.23906627      -1.58359977      -1.41081952       0.00000000
Si      -1.51931943       1.28156592      -1.46247996       0.00000000
Si       2.38933575      -0.02635722      -2.80779389       0.00000000
Si      -2.67799455       2.72117024       0.03890849       0.00000000
Si      -2.68547166      -2.72187981      -0.00635699       0.00000000
Si       2.73227283      -2.69806383       0.03211297       0.00000000
Si      -2.69734707       0.01647964       2.75273772       0.00000000
Si       0.01721853      -2.70013266       2.75118387       0.00000000
