10
Lattice="16.28999089631971 0.0 0.0 0.0 16.28999089631971 0.0 0.0 0.0 34.5300574570662" Properties=species:S:1:pos:R:3:initial_magmoms:R:1 pbc="T T T"
Si       1.35801585      -1.35733167      -1.36169358       0.00000000
Si      -1.35700587       1.35802955      -1.36224606       0.00000000
Si       1.34961021       1.36380273       1.37433158       0.00000000
Si      -1.33916832      -1.39388643       1.36224606       0.00000000
Si       2.66027103      -0.07858296       2.75947108       0.00000000
Si      -2.73784401      -0.09651825       2.68923691       0.00000000
Si      -2.71252935      -2.71754667      -0.00801098       0.00000000
Si       2.71757925       2.71670678      -0.00383284       0.00000000
Si       0.00071676       2.71496375      -2.72010680       0.00000000
Si       0.00073305      -2.71559187      -2.71955432       0.00000000
