10
Lattice="16.28999089631971 0.0 0.0 0.0 16.28999089631971 0.0 0.0 0.0 34.5300574570662" Properties=species:S:1:pos:R:3:initial_magmoms:R:1 pbc="T T T"
Si       1.35672894       1.35581859       1.35765356       0.00000000
Si      -1.35739683       1.35745573      -1.35730826       0.00000000
Si      -1.35772263      -1.35745752       1.35799886       0.00000000
Si       1.35759231      -1.35823944      -1.35792980       0.00000000
Si       2.71415835      -0.00178743      -2.71409856       0.00000000
Si       2.71466334       2.71433291       0.00034530       0.00000000
Si      -2.71502172       2.71483790      -0.00041436       0.00000000
Si       2.71476108      -2.71534305      -0.00044889       0.00000000
Si      -2.71500543      -2.71571772       0.00013812       0.00000000
Si      -2.71625976      -0.00045749      -2.71478916       0.00000000
