10
Lattice="16.28999089631971 0.0 0.0 0.0 16.28999089631971 0.0 0.0 0.0 34.5300574570662" Properties=species:S:1:pos:R:3:initial_magmoms:R:1 pbc="T T T"
Si      -1.11076623      -1.13439880      -1.80461087       0.00000000
Si      -1.90811286       0.86817066       1.26352457       0.00000000
Si       1.36353816      -1.55103184       1.44232131       0.00000000
Si       1.43703864       1.41512370      -1.70671810       0.00000000
Si      -2.28472137      -2.52958843      -0.30534947       0.00000000
Si      -2.49921180       2.81682933      -0.08145645       0.00000000
Si      -3.50857278      -0.99763707       1.09042529       0.00000000
Si       1.72010997      -0.19083898       3.45176459       0.00000000
Si       3.05834976      -2.47131910      -0.13677363       0.00000000
Si       2.35102167       1.90310694       2.52425220       0.00000000
