10
Lattice="16.28999089631971 0.0 0.0 0.0 16.28999089631971 0.0 0.0 0.0 34.5300574570662" Properties=species:S:1:pos:R:3:initial_magmoms:R:1 pbc="T T T"
Si      -1.95946383       0.92528829       0.84346618       0.00000000
Si       1.33876107      -0.61402223       1.88361569       0.00000000
Si      -0.79680906      -1.66654030      -1.52032475       0.00000000
Si       1.30207599       1.79589105      -0.91704978       0.00000000
Si      -0.78956001       2.71099809       2.07263333       0.00000000
Si      -3.01200797       1.26514656      -1.34318546       0.00000000
Si       3.18528144       0.59590449      -1.77843707       0.00000000
Si       1.34012943       3.34650357       0.97916939       0.00000000
Si       3.30235767      -1.51960125       1.02637200       0.00000000
Si      -2.69361014      -0.73606691      -2.58478343       0.00000000
