10
Lattice="16.28999089631971 0.0 0.0 0.0 16.28999089631971 0.0 0.0 0.0 34.5300574570662" Properties=species:S:1:pos:R:3:initial_magmoms:R:1 pbc="T T T"
Si       0.65801826       1.19832498       1.90968589       0.00000000
Si      -0.63091170      -2.09394592       0.92751239       0.00000000
Si       1.89596052       0.25624170      -1.43099544       0.00000000
Si      -2.18110068       1.72292814      -0.05345256       0.00000000
Si      -0.75298896       2.53443078      -1.77843707       0.00000000
Si       0.51595317       1.12555755      -3.15749928       0.00000000
Si      -1.28283750       2.65494420       1.91821482       0.00000000
Si       1.20956508      -2.22701404       2.45698761       0.00000000
Si       2.82729240       2.36815875      -0.55047848       0.00000000
Si      -0.98748351      -3.45413879      -1.08193089       0.00000000
