10
Lattice="16.28999089631971 0.0 0.0 0.0 16.28999089631971 0.0 0.0 0.0 34.5300574570662" Properties=species:S:1:pos:R:3:initial_magmoms:R:1 pbc="T T T"
Si      -0.67489470       2.20876110      -0.25407230       0.00000000
Si       2.30615901      -0.11600109      -0.43003758       0.00000000
Si      -0.38913552      -0.33197391       2.29973764       0.00000000
Si      -0.82932390      -1.30818800      -1.85827061       0.00000000
Si      -0.10070478      -2.70091702       2.28599467       0.00000000
Si       2.39182812       1.43075070      -2.23212775       0.00000000
Si       0.45097236       2.88736992      -2.22359882       0.00000000
Si      -3.02189274       2.31541173      -0.22610294       0.00000000
Si      -2.20121883       0.12815343      -3.17832091       0.00000000
Si      -0.22465539       3.46374270       1.71165590       0.00000000
