10
Lattice="16.28999089631971 0.0 0.0 0.0 16.28999089631971 0.0 0.0 0.0 34.5300574570662" Properties=species:S:1:pos:R:3:initial_magmoms:R:1 pbc="T T T"
Si       0.38913552       0.33197391      -2.29973764       0.00000000
Si       0.28843074      -2.36894311      -0.01374297       0.00000000
Si       1.46671902       0.96888033       1.63817590       0.00000000
Si      -2.00753073       1.13318127       0.72326699       0.00000000
Si      -1.96048521      -2.96359802       0.28069499       0.00000000
Si      -0.28575918       2.54073501      -2.55380995       0.00000000
Si       2.15669826      -2.56866326       1.36027784       0.00000000
Si       2.09090295      -0.87400574       2.91803320       0.00000000
Si       2.69529453       0.21597282      -2.72977522       0.00000000
Si       0.16448013       3.79571661      -0.58808174       0.00000000
