10
Lattice="16.28999089631971 0.0 0.0 0.0 16.28999089631971 0.0 0.0 0.0 34.5300574570662" Properties=species:S:1:pos:R:3:initial_magmoms:R:1 pbc="T T T"
Si       1.34423451       1.34661285      -1.37453877       0.00000000
Si      -1.38091959       1.42024365       1.28752297       0.00000000
Si      -1.37003787      -1.36728486      -1.36238418       0.00000000
Si       1.40108661      -1.34713413       1.37937298       0.00000000
Si      -0.16265565      -2.71327869       2.56555017       0.00000000
Si       2.67388947       2.70578529      -0.01550400       0.00000000
Si      -2.84148099       0.01330893       2.55519115       0.00000000
Si       2.70348840      -0.00904095      -2.72732358       0.00000000
Si      -0.01114236       2.70360243      -2.72784153       0.00000000
Si       2.71704168      -2.72712519      -0.01136040       0.00000000
