10
Lattice="16.28999089631971 0.0 0.0 0.0 16.28999089631971 0.0 0.0 0.0 34.5300574570662" Properties=species:S:1:pos:R:3:initial_magmoms:R:1 pbc="T T T"
Si       0.89826318       0.93201606       1.97166738       0.00000000
Si       1.42811172       0.81150264      -1.72498451       0.00000000
Si      -1.87999632       1.18692198      -1.06601253       0.00000000
Si      -1.75392801      -1.82720043       1.01694529       0.00000000
Si       2.18110068      -1.72292814       0.05345256       0.00000000
Si       2.83911894      -0.52460316       1.96313845       0.00000000
Si      -2.07803385      -2.75786442      -1.20727507       0.00000000
Si       0.01822851       2.12921703      -3.11440574       0.00000000
Si      -2.66913279      -0.80920575      -2.55225609       0.00000000
Si      -3.51603360       1.30121262       0.60838542       0.00000000
