10
Lattice="16.28999089631971 0.0 0.0 0.0 16.28999089631971 0.0 0.0 0.0 34.5300574570662" Properties=species:S:1:pos:R:3:initial_magmoms:R:1 pbc="T T T"
Si      -0.65801826      -1.19832498      -1.90968589       0.00000000
Si       2.12045301       1.06126092       0.02610474       0.00000000
Si      -0.08566911      -1.54675179       1.80209018       0.00000000
Si      -1.94085576       1.45661922       0.00852893       0.00000000
Si       2.16927414       1.16983377      -2.46016438       0.00000000
Si      -2.83911894       0.52460316      -1.96313845       0.00000000
Si       0.55154682      -3.42533902       0.54730172       0.00000000
Si      -2.39182812      -1.43075070       2.23212775       0.00000000
Si       1.33110477       3.22511049       0.96767087       0.00000000
Si      -1.28892996      -3.29227090      -0.98217350       0.00000000
