10
Lattice="16.28999089631971 0.0 0.0 0.0 16.28999089631971 0.0 0.0 0.0 34.5300574570662" Properties=species:S:1:pos:R:3:initial_magmoms:R:1 pbc="T T T"
Si      -0.22986819       0.13924692       2.29300428       0.00000000
Si      -1.80713115       0.52812180      -1.38261880       0.00000000
Si       1.47934377       1.77546339      -0.49664609       0.00000000
Si       1.07303859      -1.88739198      -1.02250463       0.00000000
Si      -0.22920030       0.93944430      -3.24876227       0.00000000
Si       2.13363162       0.91186533      -2.57041891       0.00000000
Si      -2.40121116      -1.72309104      -1.93741355       0.00000000
Si       1.82579949      -0.86643252       3.10301082       0.00000000
Si       3.15358110      -1.14640875      -1.77377551       0.00000000
Si      -0.78706764       2.48495805       2.76392546       0.00000000
