10
Lattice="16.28999089631971 0.0 0.0 0.0 16.28999089631971 0.0 0.0 0.0 34.5300574570662" Properties=species:S:1:pos:R:3:initial_magmoms:R:1 pbc="T T T"
Si       1.02170880       1.56947634      -1.34637776       0.00000000
Si       1.44181161      -1.25351550       1.31674578       0.00000000
Si      -1.30057731       1.44280530       1.28700157       0.00000000
Si      -0.91986372      -1.70909793      -1.37148044       0.00000000
Si       2.18132874      -0.08956242      -2.79447910       0.00000000
Si      -2.67942807       2.52947862      -0.36828399       0.00000000
Si       0.08107533      -2.61961119       2.65320823       0.00000000
Si      -2.62905939       0.09242946       2.65569439       0.00000000
Si       2.70801702      -2.59462233      -0.10125600       0.00000000
Si       2.67996564       2.72886822      -0.09856610       0.00000000
