10
Lattice="16.28999089631971 0.0 0.0 0.0 16.28999089631971 0.0 0.0 0.0 34.5300574570662" Properties=species:S:1:pos:R:3:initial_magmoms:R:1 pbc="T T T"
Si      -1.35596331       1.35322659       1.35896570       0.00000000
Si       1.35467640      -1.35627282       1.35917288       0.00000000
Si       1.35778779       1.35641943      -1.35651407       0.00000000
Si      -1.35716877      -1.35853713      -1.35630688       0.00000000
Si      -0.02837718      -2.70876636       2.68882255       0.00000000
Si      -2.70205488       0.00043983       2.71727533       0.00000000
Si       2.71355562       2.71178001       0.00148479       0.00000000
Si       0.00061902       2.71352304      -2.71399497       0.00000000
Si      -2.71440270      -0.00141723      -2.71364967       0.00000000
Si       2.71479366      -0.00100998      -2.71399497       0.00000000
