10
Lattice="16.28999089631971 0.0 0.0 0.0 16.28999089631971 0.0 0.0 0.0 34.5300574570662" Properties=species:S:1:pos:R:3:initial_magmoms:R:1 pbc="T T T"
Si      -1.37541357       1.29158523      -1.32761239       0.00000000
Si       1.38091959      -1.42024365      -1.28752297       0.00000000
Si       0.74688021       1.71276318       1.48144388       0.00000000
Si      -1.46056140      -1.40693472       1.26766818       0.00000000
Si       2.63448396       2.56214007       0.12924608       0.00000000
Si       0.00764001       2.64407877      -2.65726206       0.00000000
Si      -2.73772998       2.58709635       0.03263092       0.00000000
Si      -2.69895978      -0.07460820      -2.65677864       0.00000000
Si      -0.05067819      -2.72464911       2.65708941       0.00000000
Si       2.72515410      -0.07363080      -2.66206174       0.00000000
