10
Lattice="16.28999089631971 0.0 0.0 0.0 16.28999089631971 0.0 0.0 0.0 34.5300574570662" Properties=species:S:1:pos:R:3:initial_magmoms:R:1 pbc="T T T"
Si      -2.26566207      -0.40837401       0.49505771       0.00000000
Si       0.86097604       1.93697874       1.08679964       0.00000000
Si       1.39677206      -1.79023028       0.75658851       0.00000000
Si       0.07895763       0.43238547      -2.35564184       0.00000000
Si       2.65500026       2.13017814      -0.51653542       0.00000000
Si      -0.74396430      -1.71505518      -3.20263009       0.00000000
Si      -2.29421844      -2.55717976       1.45357811       0.00000000
Si      -2.81989674       1.09419930       2.19259081       0.00000000
Si       1.17797618      -1.78010930       3.15591090       0.00000000
Si       2.37129362       1.13541300      -2.76216443       0.00000000
