10
Lattice="16.28999089631971 0.0 0.0 0.0 16.28999089631971 0.0 0.0 0.0 34.5300574570662" Properties=species:S:1:pos:R:3:initial_magmoms:R:1 pbc="T T T"
Si       2.08203860       1.04998335      -0.17227055       0.00000000
Si      -1.13689539       1.22459749       1.64946724       0.00000000
Si      -1.39015602       0.27291289      -1.87460334       0.00000000
Si       0.15203457      -2.35042776       0.04813493       0.00000000
Si      -3.30639759      -0.35423487      -0.66221781       0.00000000
Si      -0.56405754       3.40700300       0.90237450       0.00000000
Si       2.30083448       1.03986238      -2.57159294       0.00000000
Si      -0.70998336      -1.46083086      -3.25729120       0.00000000
Si       1.76364078       3.05119682       1.06932742       0.00000000
Si      -1.22574105      -2.97969417       1.80733875       0.00000000
