10
Lattice="16.28999089631971 0.0 0.0 0.0 16.28999089631971 0.0 0.0 0.0 34.5300574570662" Properties=species:S:1:pos:R:3:initial_magmoms:R:1 pbc="T T T"
Si      -1.35596331      -1.35062019       1.38727691       0.00000000
Si       1.35545832       1.36287027       1.38513605       0.00000000
Si      -1.44664974       1.38826638      -1.36559893       0.00000000
Si       1.40351382      -1.28674710      -1.53629491       0.00000000
Si       2.71112841      -2.70247842      -0.01046952       0.00000000
Si      -2.71611315      -2.71034649       0.01543840       0.00000000
Si      -2.71285515       2.72937321       0.05240284       0.00000000
Si       2.72359952       2.72026710       0.00522095       0.00000000
Si       0.00024435      -2.70985779       2.74734757       0.00000000
Si       2.71560816       0.00428427       2.74707133       0.00000000
