10
Lattice="16.28999089631971 0.0 0.0 0.0 16.28999089631971 0.0 0.0 0.0 34.5300574570662" Properties=species:S:1:pos:R:3:initial_magmoms:R:1 pbc="T T T"
Si       0.40368249       2.19387204       0.86511654       0.00000000
Si       2.11244389      -0.87456123       0.80341130       0.00000000
Si      -1.79677071      -0.77872716       1.44408234       0.00000000
Si       0.47182356      -0.96137064      -2.23858488       0.00000000
Si      -1.29930669       1.52314758      -1.99538955       0.00000000
Si       2.37803768       0.36158913      -2.65273862       0.00000000
Si       3.64078961       0.19060929      -0.63908266       0.00000000
Si      -1.50540777      -0.40475763      -3.37486611       0.00000000
Si       1.31753520       1.86372261       2.97469705       0.00000000
Si      -3.64096161      -0.89459793      -0.06553809       0.00000000
