10
Lattice="16.28999089631971 0.0 0.0 0.0 16.28999089631971 0.0 0.0 0.0 34.5300574570662" Properties=species:S:1:pos:R:3:initial_magmoms:R:1 pbc="T T T"
Si       1.34109054       1.36980981       1.38645509       0.00000000
Si      -1.36754550      -1.35037584       1.38735288       0.00000000
Si      -1.48804263       1.28555793      -1.36528470       0.00000000
Si       1.50879609      -1.32756984      -1.53955110       0.00000000
Si       0.08055405       2.52490113      -2.61735737       0.00000000
Si      -0.14581179      -2.52582966      -2.82225854       0.00000000
Si       2.69412165       2.71231758       0.01759307       0.00000000
Si       2.71025801      -2.70593190       0.00284528       0.00000000
Si      -2.72619666      -2.69682579       0.05002718       0.00000000
Si       2.70211128       0.01027899       2.74597328       0.00000000
