10
Lattice="16.28999089631971 0.0 0.0 0.0 16.28999089631971 0.0 0.0 0.0 34.5300574570662" Properties=species:S:1:pos:R:3:initial_magmoms:R:1 pbc="T T T"
Si       1.82068443       0.03979647      -1.50917153       0.00000000
Si       0.29041812       2.02496103       1.26797895       0.00000000
Si      -0.07807797      -1.94098608       1.49149214       0.00000000
Si      -1.64687665       0.15995151      -2.09197017       0.00000000
Si       1.26141615       2.31057360      -1.82059830       0.00000000
Si      -1.13890232       2.70917361      -1.87194452       0.00000000
Si       2.35418193       2.77387749       0.37461680       0.00000000
Si       0.57127401       1.37259540       3.51982337       0.00000000
Si       0.20562867      -0.94622094       3.73712115       0.00000000
Si      -1.42569265       3.57671385       0.52565136       0.00000000
