10
Lattice="16.28999089631971 0.0 0.0 0.0 16.28999089631971 0.0 0.0 0.0 34.5300574570662" Properties=species:S:1:pos:R:3:initial_magmoms:R:1 pbc="T T T"
Si       1.35839052       1.35661491      -1.35540910       0.00000000
Si      -1.35700587       1.35742941       1.35748091       0.00000000
Si       1.35809730      -1.35747828       1.35751544       0.00000000
Si      -1.35705474      -1.35913986      -1.35772262       0.00000000
Si      -2.71173114       0.00029322      -2.71492728       0.00000000
Si      -0.00123804       2.71278999       2.71547977       0.00000000
Si      -2.71417464       2.71453302       0.00000000       0.00000000
Si      -2.71479366       0.00100998       2.71399497       0.00000000
Si       2.71210581       0.00410508      -2.71679191       0.00000000
Si      -2.71409319      -2.71533123       0.00048342       0.00000000
