10
Lattice="16.28999089631971 0.0 0.0 0.0 16.28999089631971 0.0 0.0 0.0 34.5300574570662" Properties=species:S:1:pos:R:3:initial_magmoms:R:1 pbc="T T T"
Si      -1.27922112       1.37239407      -1.44812236       0.00000000
Si       1.06218945       1.71384551       1.29284060       0.00000000
Si       1.44223515      -1.32439329      -1.45426871       0.00000000
Si      -1.21420773      -1.39209453       1.60775490       0.00000000
Si      -2.54485638      -2.59963965      -0.05666386       0.00000000
Si      -2.83551885       2.49434828       0.03781043       0.00000000
Si      -2.61125442       0.02389743      -2.82393874       0.00000000
Si       2.75525802      -2.70609480      -0.10725042       0.00000000
Si       0.10047672      -2.69495244      -2.82348985       0.00000000
Si       0.10111203       2.73987116      -2.81938077       0.00000000
