10
Lattice="16.28999089631971 0.0 0.0 0.0 16.28999089631971 0.0 0.0 0.0 34.5300574570662" Properties=species:S:1:pos:R:3:initial_magmoms:R:1 pbc="T T T"
Si       0.27477972       1.79838342      -1.44411687       0.00000000
Si       0.78514542      -1.96317306      -1.04253208       0.00000000
Si       1.13679765       0.90878652       1.86130926       0.00000000
Si      -2.26471725      -0.48136950       0.58428343       0.00000000
Si      -1.83308112      -2.65062735       1.35951818       0.00000000
Si      -2.24297010       0.99276147       2.51085453       0.00000000
Si      -0.40539294       3.53212716      -0.06142901       0.00000000
Si      -0.24097797       0.27952011       3.62051308       0.00000000
Si       3.37105653       0.24475725       1.67750566       0.00000000
Si      -0.26365365      -3.76686702       0.02486166       0.00000000
