10
Lattice="16.28999089631971 0.0 0.0 0.0 16.28999089631971 0.0 0.0 0.0 34.5300574570662" Properties=species:S:1:pos:R:3:initial_magmoms:R:1 pbc="T T T"
Si      -1.20392874      -0.95086359      -1.84732458       0.00000000
Si       2.36081426      -0.44124723      -0.03901899       0.00000000
Si      -0.33407532       2.38296703       0.14785779       0.00000000
Si      -0.26511975      -1.07856090       2.22235574       0.00000000
Si       0.17384688      -0.32159718      -3.60652840       0.00000000
Si       2.92643075       1.13640669       1.84394063       0.00000000
Si       1.81730493       3.07456713       1.00972850       0.00000000
Si       2.52180507      -2.77060320       0.48317936       0.00000000
Si      -2.24212302       2.62277538       1.69459805       0.00000000
Si      -2.59480152      -1.26915390       2.54624786       0.00000000
