10
Lattice="16.28999089631971 0.0 0.0 0.0 16.28999089631971 0.0 0.0 0.0 34.5300574570662" Properties=species:S:1:pos:R:3:initial_magmoms:R:1 pbc="T T T"
Si      -1.49578038       0.82326402       1.61635289       0.00000000
Si      -0.36564534      -2.31881634       0.21729777       0.00000000
Si       2.05631928       0.64205406       0.95858946       0.00000000
Si      -0.28085589       0.65236563      -2.25184443       0.00000000
Si       1.85168430      -0.35196174       3.15995091       0.00000000
Si      -0.23302845       0.65228418       3.63000885       0.00000000
Si      -2.15966956      -2.51201574       1.82063283       0.00000000
Si       1.94668758       3.07639908       1.13130890       0.00000000
Si      -0.57127401      -1.37259540      -3.51982337       0.00000000
Si       1.78290792       1.40128209      -3.14520657       0.00000000
