10
Lattice="16.28999089631971 0.0 0.0 0.0 16.28999089631971 0.0 0.0 0.0 34.5300574570662" Properties=species:S:1:pos:R:3:initial_magmoms:R:1 pbc="T T T"
Si       1.05448428      -2.08912734      -0.09747841       0.00000000
Si      -2.32968177      -0.19059300       0.32389212       0.00000000
Si       0.26511975       1.07856090      -2.22235574       0.00000000
Si      -0.93620259       0.01384650       2.30243068       0.00000000
Si       2.62593401       0.63731367      -2.26137473       0.00000000
Si       2.78692482      -1.69204230      -1.73917638       0.00000000
Si      -3.32806329       1.86004107       0.04654654       0.00000000
Si       0.43437285       1.58548941       3.46606837       0.00000000
Si       2.30426027       2.33474796       2.06203259       0.00000000
Si       3.19155050       2.21496759      -0.37841511       0.00000000
