10
Lattice="16.28999089631971 0.0 0.0 0.0 16.28999089631971 0.0 0.0 0.0 34.5300574570662" Properties=species:S:1:pos:R:3:initial_magmoms:R:1 pbc="T T T"
Si       1.34895980       1.35431802       1.38105459       0.00000000
Si      -1.36814120      -1.35739683       1.37991510       0.00000000
Si      -1.20146192       1.37836206      -1.54239637       0.00000000
Si       1.41936518      -1.32227559      -1.42749064       0.00000000
Si      -0.06762905      -2.45190564      -2.88508256       0.00000000
Si      -2.71025801       2.70593190      -0.00284528       0.00000000
Si       2.70936702      -2.71740006       0.00613945       0.00000000
Si       2.71146843       2.72833065       0.00571127       0.00000000
Si      -2.72359952      -2.72026710      -0.00522095       0.00000000
Si       2.70874800       0.00055386       2.74288629       0.00000000
