10
Lattice="16.28999089631971 0.0 0.0 0.0 16.28999089631971 0.0 0.0 0.0 34.5300574570662" Properties=species:S:1:pos:R:3:initial_magmoms:R:1 pbc="T T T"
Si       1.35091341       1.34574948       1.37703529       0.00000000
Si      -1.36250863      -1.37401263       1.37534332       0.00000000
Si       1.54225575      -1.26643347      -1.29151810       0.00000000
Si      -1.41875800       1.30056102      -1.44081579       0.00000000
Si      -2.23124619      -0.28605240      -3.04234635       0.00000000
Si       2.72109789       2.67726150      -0.02126362       0.00000000
Si      -2.72760479       2.68991883       0.00903652       0.00000000
Si      -0.00539199       2.70148473       2.73703689       0.00000000
Si      -2.71146843      -2.72833065      -0.00571127       0.00000000
Si       2.70927135      -0.01677870       2.73758937       0.00000000
